YUN-WES-64c64eb2-1
     RDKit          3D

 45 48  0  0  0  0  0  0  0  0999 V2000
   13.4470   -2.1960   23.3640 C   0  0  0  0  0  0  0  0  0  0  0  0
   12.0570   -2.1810   23.2850 C   0  0  0  0  0  0  0  0  0  0  0  0
   11.3590   -2.1000   24.4740 C   0  0  0  0  0  0  0  0  0  0  0  0
   11.5870   -1.2060   22.1930 C   0  0  0  0  0  0  0  0  0  0  0  0
   10.3290   -0.7160   22.2260 C   0  0  2  0  0  0  0  0  0  0  0  0
   10.1330    0.4560   23.1190 N   0  0  0  0  0  0  0  0  0  0  0  0
    9.3790    1.6240   22.6650 C   0  0  0  0  0  0  0  0  0  0  0  0
    9.1410    1.9270   21.4830 O   0  0  0  0  0  0  0  0  0  0  0  0
    8.9610    2.3610   23.8250 N   0  0  0  0  0  0  0  0  0  0  0  0
    9.0390    3.7300   24.0170 C   0  0  0  0  0  0  0  0  0  0  0  0
   10.2970    4.2790   23.7200 C   0  0  0  0  0  0  0  0  0  0  0  0
   11.0450    3.9520   22.5780 C   0  0  0  0  0  0  0  0  0  0  0  0
   12.2910    4.5170   22.3020 C   0  0  0  0  0  0  0  0  0  0  0  0
   12.8510    5.4410   23.1590 C   0  0  0  0  0  0  0  0  0  0  0  0
   12.1930    5.8360   24.3240 C   0  0  0  0  0  0  0  0  0  0  0  0
   10.9360    5.3040   24.6600 C   0  0  0  0  0  0  0  0  0  0  0  0
    9.2670   -1.8220   22.5420 C   0  0  0  0  0  0  0  0  0  0  0  0
    9.1660   -2.5080   23.7920 O   0  0  0  0  0  0  0  0  0  0  0  0
    8.4230   -2.0800   21.4700 N   0  0  0  0  0  0  0  0  0  0  0  0
    6.9520   -1.9640   21.5530 C   0  0  1  0  0  0  0  0  0  0  0  0
    6.4620   -0.6570   21.4020 C   0  0  0  0  0  0  0  0  0  0  0  0
    5.4160   -0.4460   20.5020 C   0  0  2  0  0  0  0  0  0  0  0  0
    5.5490    0.1720   19.1860 C   0  0  0  0  0  0  0  0  0  0  0  0
    4.7050    1.2530   18.9080 C   0  0  0  0  0  0  0  0  0  0  0  0
    4.2050    1.5440   20.2190 N   0  0  0  0  0  0  0  0  0  0  0  0
    4.3170    0.4520   21.0610 C   0  0  0  0  0  0  0  0  0  0  0  0
    3.6390    0.2590   22.0590 O   0  0  0  0  0  0  0  0  0  0  0  0
    6.3420   -2.8680   20.4670 C   0  0  0  0  0  0  0  0  0  0  0  0
    6.1020   -2.4370   19.3430 O   0  0  0  0  0  0  0  0  0  0  0  0
    6.0070   -4.2210   20.7080 C   0  0  0  0  0  0  0  0  0  0  0  0
    5.4450   -4.7820   19.7740 O   0  0  0  0  0  0  0  0  0  0  0  0
    6.2870   -4.9070   21.8860 N   0  0  0  0  0  0  0  0  0  0  0  0
    7.1920   -4.4120   22.9050 C   0  0  0  0  0  0  0  0  0  0  0  0
    6.2980   -3.9970   24.0640 C   0  0  0  0  0  0  0  0  0  0  0  0
    5.5280   -5.2060   24.4930 N   0  0  0  0  0  0  0  0  0  0  0  0
    4.7010   -5.0930   25.9750 S   0  0  0  0  0  0  0  0  0  0  0  0
    3.7670   -6.4040   26.0980 O   0  0  0  0  0  0  0  0  0  0  0  0
    5.6650   -4.7610   26.9950 O   0  0  0  0  0  0  0  0  0  0  0  0
    3.5420   -3.7410   25.9970 C   0  0  0  0  0  0  0  0  0  0  0  0
    2.0740   -3.6850   26.4250 C   0  0  0  0  0  0  0  0  0  0  0  0
    1.5770   -2.2680   26.2450 C   0  0  0  0  0  0  0  0  0  0  0  0
    2.5610   -1.4390   25.7560 C   0  0  0  0  0  0  0  0  0  0  0  0
    4.0820   -2.1880   25.4740 S   0  0  0  0  0  0  0  0  0  0  0  0
    4.8750   -6.0570   23.4370 C   0  0  0  0  0  0  0  0  0  0  0  0
    5.6240   -6.1580   22.2590 C   0  0  0  0  0  0  0  0  0  0  0  0
  1  2  1  0
  2  3  1  0
  2  4  1  0
  5  4  1  1
  5  6  1  0
  6  7  1  0
  7  8  2  0
  7  9  1  0
  9 10  1  0
 10 11  1  0
 11 12  2  0
 12 13  1  0
 13 14  2  0
 14 15  1  0
 11 16  1  0
 15 16  2  0
  5 17  1  0
 17 18  2  0
 17 19  1  0
 19 20  1  0
 20 21  1  6
 22 21  1  1
 22 23  1  0
 23 24  1  0
 24 25  1  0
 22 26  1  0
 25 26  1  0
 26 27  2  0
 20 28  1  0
 28 29  2  0
 28 30  1  0
 30 31  2  0
 30 32  1  0
 32 33  1  0
 33 34  1  0
 34 35  1  0
 35 36  1  0
 36 37  2  0
 36 38  2  0
 36 39  1  0
 39 40  2  0
 40 41  1  0
 41 42  2  0
 39 43  1  0
 42 43  1  0
 35 44  1  0
 32 45  1  0
 44 45  1  0
M  END
