YUN-WES-64c64eb2-6
     RDKit          3D

 41 43  0  0  0  0  0  0  0  0999 V2000
    1.5980   -6.9810   16.2540 C   0  0  0  0  0  0  0  0  0  0  0  0
    0.5710   -7.6380   17.5800 O   0  0  0  0  0  0  0  0  0  0  0  0
    0.4430   -8.0380   18.8360 C   0  0  0  0  0  0  0  0  0  0  0  0
    1.2730   -8.9070   19.4220 C   0  0  0  0  0  0  0  0  0  0  0  0
    1.1590   -9.0580   20.7290 C   0  0  0  0  0  0  0  0  0  0  0  0
    1.9410   -9.8110   21.2120 F   0  0  0  0  0  0  0  0  0  0  0  0
    0.1970   -8.3570   21.5660 C   0  0  0  0  0  0  0  0  0  0  0  0
   -0.6940   -7.4810   21.1140 C   0  0  0  0  0  0  0  0  0  0  0  0
   -1.4270   -6.9450   22.2700 N   0  0  0  0  0  0  0  0  0  0  0  0
   -0.5970   -5.9890   23.1350 C   0  0  0  0  0  0  0  0  0  0  0  0
   -1.0260   -4.7220   23.5130 O   0  0  0  0  0  0  0  0  0  0  0  0
    0.8340   -6.4520   23.6410 C   0  0  0  0  0  0  0  0  0  0  0  0
    1.0760   -7.8700   23.7100 O   0  0  0  0  0  0  0  0  0  0  0  0
    2.0260   -5.5450   24.1330 C   0  0  2  0  0  0  0  0  0  0  0  0
    3.0550   -5.3530   23.1330 C   0  0  0  0  0  0  0  0  0  0  0  0
    4.4440   -5.6960   23.3250 C   0  0  2  0  0  0  0  0  0  0  0  0
    5.1520   -5.0120   24.3470 C   0  0  0  0  0  0  0  0  0  0  0  0
    6.4790   -4.9620   23.8840 C   0  0  0  0  0  0  0  0  0  0  0  0
    6.5550   -5.2500   22.4630 N   0  0  0  0  0  0  0  0  0  0  0  0
    5.2520   -5.3520   22.1730 C   0  0  0  0  0  0  0  0  0  0  0  0
    4.8640   -5.1110   21.0600 O   0  0  0  0  0  0  0  0  0  0  0  0
    2.4260   -6.1940   25.3820 N   0  0  0  0  0  0  0  0  0  0  0  0
    2.6980   -5.4270   26.6200 C   0  0  0  0  0  0  0  0  0  0  0  0
    3.5990   -4.5960   26.7490 O   0  0  0  0  0  0  0  0  0  0  0  0
    1.7720   -5.7920   27.6270 C   0  0  2  0  0  0  0  0  0  0  0  0
    0.6470   -6.4980   27.1970 C   0  0  0  0  0  0  0  0  0  0  0  0
    0.4030   -7.7180   27.8300 C   0  0  0  0  0  0  0  0  0  0  0  0
    1.5430   -8.3990   28.2400 C   0  0  0  0  0  0  0  0  0  0  0  0
   -0.4020   -7.6440   28.9710 C   0  0  0  0  0  0  0  0  0  0  0  0
    1.3160   -4.5620   28.0750 N   0  0  0  0  0  0  0  0  0  0  0  0
    0.8980   -4.4040   29.3810 C   0  0  0  0  0  0  0  0  0  0  0  0
    1.5810   -3.8940   30.2630 O   0  0  0  0  0  0  0  0  0  0  0  0
   -0.3720   -4.8820   29.5700 N   0  0  0  0  0  0  0  0  0  0  0  0
   -1.5120   -3.9890   29.6630 C   0  0  0  0  0  0  0  0  0  0  0  0
   -2.7110   -4.6940   29.5550 C   0  0  0  0  0  0  0  0  0  0  0  0
   -2.9360   -5.7800   30.4030 C   0  0  0  0  0  0  0  0  0  0  0  0
   -4.1170   -6.5140   30.3340 C   0  0  0  0  0  0  0  0  0  0  0  0
   -5.1960   -6.1540   29.3310 C   0  0  0  0  0  0  0  0  0  0  0  0
   -4.8860   -4.9640   28.4410 C   0  0  0  0  0  0  0  0  0  0  0  0
   -3.6650   -4.2910   28.5920 C   0  0  0  0  0  0  0  0  0  0  0  0
   -0.5980   -7.3200   19.5840 C   0  0  0  0  0  0  0  0  0  0  0  0
  1  2  1  0
  2  3  1  0
  3  4  2  0
  4  5  1  0
  5  6  1  0
  5  7  2  0
  7  8  1  0
  8  9  1  0
  9 10  1  0
 10 11  2  0
 10 12  1  0
 12 13  2  0
 12 14  1  0
 14 15  1  6
 16 15  1  6
 16 17  1  0
 17 18  1  0
 18 19  1  0
 16 20  1  0
 19 20  1  0
 20 21  2  0
 14 22  1  0
 22 23  1  0
 23 24  2  0
 23 25  1  0
 25 26  1  6
 26 27  1  0
 27 28  1  0
 27 29  1  0
 25 30  1  0
 30 31  1  0
 31 32  2  0
 31 33  1  0
 33 34  1  0
 34 35  1  0
 35 36  2  0
 36 37  1  0
 37 38  2  0
 38 39  1  0
 35 40  1  0
 39 40  2  0
  3 41  1  0
  8 41  2  0
M  END
