YUN-WES-58b0dbae-5
     RDKit          3D

 44 47  0  0  0  0  0  0  0  0999 V2000
    6.3630   -3.7250   23.5960 C   0  0  0  0  0  0  0  0  0  0  0  0
    5.5810   -4.0940   24.7460 O   0  0  0  0  0  0  0  0  0  0  0  0
    5.7300   -5.3930   25.2470 C   0  0  0  0  0  0  0  0  0  0  0  0
    5.2600   -5.8920   23.9240 C   0  0  0  0  0  0  0  0  0  0  0  0
    5.2650   -7.2140   23.8290 C   0  0  0  0  0  0  0  0  0  0  0  0
    5.4540   -5.6560   24.4940 C   0  0  0  0  0  0  0  0  0  0  0  0
    5.6470   -4.0940   25.1700 C   0  0  0  0  0  0  0  0  0  0  0  0
    5.8700   -2.3760   25.9440 S   0  0  0  0  0  0  0  0  0  0  0  0
    6.0490   -3.7100   26.4110 C   0  0  0  0  0  0  0  0  0  0  0  0
    5.5250   -4.6030   25.5400 N   0  0  0  0  0  0  0  0  0  0  0  0
    4.1270   -4.6280   25.2000 C   0  0  0  0  0  0  0  0  0  0  0  0
    3.7210   -4.2630   24.0700 O   0  0  0  0  0  0  0  0  0  0  0  0
    3.1050   -5.0180   26.1100 C   0  0  0  0  0  0  0  0  0  0  0  0
    3.2920   -4.8850   27.3320 O   0  0  0  0  0  0  0  0  0  0  0  0
    1.7750   -5.5940   25.5020 C   0  0  2  0  0  0  0  0  0  0  0  0
    1.4050   -4.8880   24.3570 C   0  0  0  0  0  0  0  0  0  0  0  0
    0.1910   -5.5400   23.6860 C   0  0  2  0  0  0  0  0  0  0  0  0
    0.3950   -6.3350   22.5470 C   0  0  0  0  0  0  0  0  0  0  0  0
   -0.6430   -6.3470   21.6010 C   0  0  0  0  0  0  0  0  0  0  0  0
   -1.4050   -5.1940   21.9360 N   0  0  0  0  0  0  0  0  0  0  0  0
   -0.8850   -4.5950   23.1710 C   0  0  0  0  0  0  0  0  0  0  0  0
   -1.2650   -3.5350   23.6490 O   0  0  0  0  0  0  0  0  0  0  0  0
    0.6790   -5.4630   26.5140 N   0  0  0  0  0  0  0  0  0  0  0  0
    0.0810   -6.6080   27.2260 C   0  0  0  0  0  0  0  0  0  0  0  0
    0.5870   -7.7330   27.2200 O   0  0  0  0  0  0  0  0  0  0  0  0
   -1.1030   -6.3480   27.9340 C   0  0  2  0  0  0  0  0  0  0  0  0
   -1.0730   -5.4540   28.9950 C   0  0  0  0  0  0  0  0  0  0  0  0
   -2.3990   -5.2280   29.4480 C   0  0  0  0  0  0  0  0  0  0  0  0
   -2.4450   -3.7640   29.9350 C   0  0  0  0  0  0  0  0  0  0  0  0
   -2.6480   -6.0650   30.7160 C   0  0  0  0  0  0  0  0  0  0  0  0
   -1.6250   -7.6550   28.3790 N   0  0  0  0  0  0  0  0  0  0  0  0
   -3.0340   -8.2680   27.7560 S   0  0  0  0  0  0  0  0  0  0  0  0
   -2.8560   -9.6860   27.5310 O   0  0  0  0  0  0  0  0  0  0  0  0
   -3.5080   -7.3810   26.7320 O   0  0  0  0  0  0  0  0  0  0  0  0
   -4.0660   -8.1260   29.0640 N   0  0  0  0  0  0  0  0  0  0  0  0
   -5.1490   -7.1430   28.9340 C   0  0  0  0  0  0  0  0  0  0  0  0
   -6.2960   -7.5150   29.5800 C   0  0  0  0  0  0  0  0  0  0  0  0
   -6.2360   -8.4590   30.6290 C   0  0  0  0  0  0  0  0  0  0  0  0
   -7.3980   -8.8520   31.2950 C   0  0  0  0  0  0  0  0  0  0  0  0
   -8.6380   -8.3110   30.9330 C   0  0  0  0  0  0  0  0  0  0  0  0
   -8.7070   -7.3850   29.9010 C   0  0  0  0  0  0  0  0  0  0  0  0
   -7.5540   -6.9860   29.2270 C   0  0  0  0  0  0  0  0  0  0  0  0
    6.4580   -4.1050   27.3280 N   0  0  0  0  0  0  0  0  0  0  0  0
    6.1080   -4.9900   26.3080 C   0  0  0  0  0  0  0  0  0  0  0  0
  1  2  1  0
  2  3  1  0
  3  4  2  0
  4  5  1  0
  5  6  2  0
  6  7  1  0
  7  8  1  0
  8  9  1  0
  9 10  1  0
 10 11  1  0
 11 12  2  0
 11 13  1  0
 13 14  2  0
 13 15  1  0
 15 16  1  6
 17 16  1  6
 17 18  1  0
 18 19  1  0
 19 20  1  0
 17 21  1  0
 20 21  1  0
 21 22  2  0
 15 23  1  0
 23 24  1  0
 24 25  2  0
 24 26  1  0
 26 27  1  1
 27 28  1  0
 28 29  1  0
 28 30  1  0
 26 31  1  0
 32 31  1  0
 32 33  2  0
 32 34  2  0
 32 35  1  0
 35 36  1  0
 36 37  1  0
 37 38  2  0
 38 39  1  0
 39 40  2  0
 40 41  1  0
 37 42  1  0
 41 42  2  0
  9 43  2  0
  3 44  1  0
  7 44  2  0
 43 44  1  0
M  END
