YUN-WES-58b0dbae-1
     RDKit          3D

 41 43  0  0  0  0  0  0  0  0999 V2000
    5.8280   -2.4590   19.9120 C   0  0  0  0  0  0  0  0  0  0  0  0
    5.8430   -3.8510   20.3830 C   0  0  0  0  0  0  0  0  0  0  0  0
    5.3100   -4.7250   19.7190 O   0  0  0  0  0  0  0  0  0  0  0  0
    6.5120   -4.1600   21.5510 N   0  0  0  0  0  0  0  0  0  0  0  0
    6.6580   -5.5890   21.8310 C   0  0  0  0  0  0  0  0  0  0  0  0
    6.7370   -5.8430   23.1960 C   0  0  0  0  0  0  0  0  0  0  0  0
    6.9170   -4.6280   24.0080 N   0  0  0  0  0  0  0  0  0  0  0  0
    5.7200   -4.3180   24.7520 C   0  0  0  0  0  0  0  0  0  0  0  0
    4.6970   -3.5870   24.0960 O   0  0  0  0  0  0  0  0  0  0  0  0
    5.4730   -4.6770   26.1710 C   0  0  0  0  0  0  0  0  0  0  0  0
    5.0630   -5.7990   26.4610 O   0  0  0  0  0  0  0  0  0  0  0  0
    5.7500   -3.5370   27.1370 C   0  0  2  0  0  0  0  0  0  0  0  0
    6.5230   -2.4510   26.4150 C   0  0  0  0  0  0  0  0  0  0  0  0
    6.8780   -1.1700   27.1000 C   0  0  2  0  0  0  0  0  0  0  0  0
    5.7940   -0.4370   27.5030 C   0  0  0  0  0  0  0  0  0  0  0  0
    5.7130    0.7920   26.8890 C   0  0  0  0  0  0  0  0  0  0  0  0
    6.8650    0.9280   26.1330 N   0  0  0  0  0  0  0  0  0  0  0  0
    7.6670   -0.2260   26.3480 C   0  0  0  0  0  0  0  0  0  0  0  0
    8.9450   -0.3500   25.8890 O   0  0  0  0  0  0  0  0  0  0  0  0
    6.3050   -4.0730   28.2770 N   0  0  0  0  0  0  0  0  0  0  0  0
    5.7200   -5.0670   29.1860 C   0  0  0  0  0  0  0  0  0  0  0  0
    6.3690   -5.9710   29.7200 O   0  0  0  0  0  0  0  0  0  0  0  0
    4.3270   -4.9200   29.4160 C   0  0  2  0  0  0  0  0  0  0  0  0
    3.5710   -5.4350   28.3800 C   0  0  0  0  0  0  0  0  0  0  0  0
    3.7060   -6.8250   28.2000 C   0  0  0  0  0  0  0  0  0  0  0  0
    2.9640   -7.2780   27.0980 C   0  0  0  0  0  0  0  0  0  0  0  0
    5.0480   -7.2000   28.0680 C   0  0  0  0  0  0  0  0  0  0  0  0
    4.0150   -3.4750   29.4490 N   0  0  0  0  0  0  0  0  0  0  0  0
    2.8160   -2.9030   30.5250 S   0  0  0  0  0  0  0  0  0  0  0  0
    2.4910   -1.5550   30.1360 O   0  0  0  0  0  0  0  0  0  0  0  0
    3.2360   -3.2060   31.8820 O   0  0  0  0  0  0  0  0  0  0  0  0
    1.5040   -3.8670   30.1340 N   0  0  0  0  0  0  0  0  0  0  0  0
    0.4800   -3.2430   29.4660 C   0  0  0  0  0  0  0  0  0  0  0  0
    0.2720   -3.8000   28.1940 C   0  0  0  0  0  0  0  0  0  0  0  0
   -0.3690   -5.0370   28.0710 C   0  0  0  0  0  0  0  0  0  0  0  0
   -0.5750   -5.5840   26.8070 C   0  0  0  0  0  0  0  0  0  0  0  0
   -0.1430   -4.9000   25.6800 C   0  0  0  0  0  0  0  0  0  0  0  0
    0.5190   -3.6280   25.7520 C   0  0  0  0  0  0  0  0  0  0  0  0
    0.7050   -3.1130   27.0430 C   0  0  0  0  0  0  0  0  0  0  0  0
    7.8530   -3.6200   23.5370 C   0  0  0  0  0  0  0  0  0  0  0  0
    7.5800   -3.3040   22.0830 C   0  0  0  0  0  0  0  0  0  0  0  0
  1  2  1  0
  2  3  2  0
  2  4  1  0
  4  5  1  0
  5  6  1  0
  6  7  1  0
  7  8  1  0
  8  9  2  0
  8 10  1  0
 10 11  2  0
 10 12  1  0
 12 13  1  6
 14 13  1  6
 14 15  1  0
 15 16  1  0
 16 17  1  0
 14 18  1  0
 17 18  1  0
 18 19  2  0
 12 20  1  0
 20 21  1  0
 21 22  2  0
 21 23  1  0
 23 24  1  6
 24 25  1  0
 25 26  1  0
 25 27  1  0
 23 28  1  0
 29 28  1  0
 29 30  2  0
 29 31  2  0
 29 32  1  0
 32 33  1  0
 33 34  1  0
 34 35  2  0
 35 36  1  0
 36 37  2  0
 37 38  1  0
 34 39  1  0
 38 39  2  0
  7 40  1  0
  4 41  1  0
 40 41  1  0
M  END
