YUN-WES-64c64eb2-4
     RDKit          3D

 48 51  0  0  0  0  0  0  0  0999 V2000
    1.0220    2.3510   20.1700 C   0  0  0  0  0  0  0  0  0  0  0  0
    1.3310    2.1160   21.5380 O   0  0  0  0  0  0  0  0  0  0  0  0
    2.3970    1.3070   21.8440 C   0  0  0  0  0  0  0  0  0  0  0  0
    2.6660    0.7640   23.1080 C   0  0  0  0  0  0  0  0  0  0  0  0
    3.7880   -0.0610   23.3300 C   0  0  0  0  0  0  0  0  0  0  0  0
    4.0280   -0.5730   24.5640 N   0  0  0  0  0  0  0  0  0  0  0  0
    4.6220   -1.7950   24.6620 C   0  0  0  0  0  0  0  0  0  0  0  0
    5.8070   -2.1750   23.9320 O   0  0  0  0  0  0  0  0  0  0  0  0
    4.0660   -2.8360   25.5630 C   0  0  0  0  0  0  0  0  0  0  0  0
    2.9310   -2.6120   25.9810 O   0  0  0  0  0  0  0  0  0  0  0  0
    4.8250   -3.9890   25.9060 C   0  0  2  0  0  0  0  0  0  0  0  0
    4.4450   -5.0740   25.0760 C   0  0  0  0  0  0  0  0  0  0  0  0
    5.4420   -5.4200   24.1360 C   0  0  2  0  0  0  0  0  0  0  0  0
    6.5970   -4.6240   23.9280 C   0  0  0  0  0  0  0  0  0  0  0  0
    6.8810   -4.4570   22.6010 C   0  0  0  0  0  0  0  0  0  0  0  0
    5.8840   -5.1680   21.8530 N   0  0  0  0  0  0  0  0  0  0  0  0
    4.9270   -5.6540   22.7010 C   0  0  0  0  0  0  0  0  0  0  0  0
    3.8820   -6.1690   22.3800 O   0  0  0  0  0  0  0  0  0  0  0  0
    4.7030   -4.3750   27.1870 N   0  0  0  0  0  0  0  0  0  0  0  0
    3.7370   -5.3920   27.6140 C   0  0  0  0  0  0  0  0  0  0  0  0
    3.7310   -6.5230   27.1360 O   0  0  0  0  0  0  0  0  0  0  0  0
    2.7920   -5.0720   28.6240 C   0  0  2  0  0  0  0  0  0  0  0  0
    3.2520   -5.3660   29.9300 C   0  0  0  0  0  0  0  0  0  0  0  0
    2.6250   -4.6870   30.9830 C   0  0  0  0  0  0  0  0  0  0  0  0
    1.4770   -5.2550   31.5020 C   0  0  0  0  0  0  0  0  0  0  0  0
    2.3390   -3.2310   30.6210 C   0  0  0  0  0  0  0  0  0  0  0  0
    1.7960   -5.9940   28.3730 N   0  0  0  0  0  0  0  0  0  0  0  0
    0.5210   -5.7740   28.7910 C   0  0  0  0  0  0  0  0  0  0  0  0
    0.2440   -4.7810   29.4640 O   0  0  0  0  0  0  0  0  0  0  0  0
   -0.4440   -6.7190   28.4140 N   0  0  0  0  0  0  0  0  0  0  0  0
   -1.6610   -6.1390   27.8270 C   0  0  0  0  0  0  0  0  0  0  0  0
   -1.9910   -6.6830   26.5840 C   0  0  0  0  0  0  0  0  0  0  0  0
   -2.7040   -7.8760   26.5030 C   0  0  0  0  0  0  0  0  0  0  0  0
   -3.0650   -8.4640   25.2800 C   0  0  0  0  0  0  0  0  0  0  0  0
   -2.6610   -7.7730   23.9680 C   0  0  0  0  0  0  0  0  0  0  0  0
   -1.9400   -6.5670   24.0340 C   0  0  0  0  0  0  0  0  0  0  0  0
   -1.6030   -6.0170   25.4200 C   0  0  0  0  0  0  0  0  0  0  0  0
   -0.6260   -8.0100   29.1090 C   0  0  2  0  0  0  0  0  0  0  0  0
    0.3270   -8.2210   30.1120 C   0  0  0  0  0  0  0  0  0  0  0  0
    0.2280   -9.6140   30.7230 C   0  0  0  0  0  0  0  0  0  0  0  0
    0.1600  -10.5730   29.7220 C   0  0  0  0  0  0  0  0  0  0  0  0
    0.2970  -10.1090   28.4200 C   0  0  0  0  0  0  0  0  0  0  0  0
   -0.6610   -9.0840   28.1590 O   0  0  0  0  0  0  0  0  0  0  0  0
    4.6280   -0.3160   22.2330 C   0  0  0  0  0  0  0  0  0  0  0  0
    4.3690    0.2240   20.9640 C   0  0  0  0  0  0  0  0  0  0  0  0
    5.2800   -0.1160   19.9960 O   0  0  0  0  0  0  0  0  0  0  0  0
    4.9760    0.2090   18.6370 C   0  0  0  0  0  0  0  0  0  0  0  0
    3.2530    1.0340   20.7760 C   0  0  0  0  0  0  0  0  0  0  0  0
  1  2  1  0
  2  3  1  0
  3  4  2  0
  4  5  1  0
  5  6  1  0
  6  7  1  0
  7  8  2  0
  7  9  1  0
  9 10  2  0
  9 11  1  0
 11 12  1  6
 13 12  1  1
 13 14  1  0
 14 15  1  0
 15 16  1  0
 13 17  1  0
 16 17  1  0
 17 18  2  0
 11 19  1  0
 19 20  1  0
 20 21  2  0
 20 22  1  0
 22 23  1  1
 23 24  1  0
 24 25  1  0
 24 26  1  0
 22 27  1  0
 27 28  1  0
 28 29  2  0
 28 30  1  0
 30 31  1  0
 31 32  1  0
 32 33  2  0
 33 34  1  0
 34 35  2  0
 35 36  1  0
 32 37  1  0
 36 37  2  0
 38 30  1  6
 38 39  1  0
 39 40  1  0
 40 41  1  0
 41 42  1  0
 38 43  1  0
 42 43  1  0
  5 44  2  0
 44 45  1  0
 45 46  1  0
 46 47  1  0
  3 48  1  0
 45 48  2  0
M  END
