ZAC-MCD-b48cf8fd-1
     RDKit          3D

 37 41  0  0  0  0  0  0  0  0999 V2000
    5.5040   -4.4790   19.9880 O   0  0  0  0  0  0  0  0  0  0  0  0
    6.1420   -4.2920   21.0360 C   0  0  0  0  0  0  0  0  0  0  0  0
    6.6940   -2.8620   21.3990 C   0  0  0  0  0  0  0  0  0  0  0  0
    8.0130   -2.8270   22.2070 C   0  0  1  0  0  0  0  0  0  0  0  0
    8.9190   -1.9310   21.6360 C   0  0  0  0  0  0  0  0  0  0  0  0
    9.4440   -1.1790   22.6140 N   0  0  0  0  0  0  0  0  0  0  0  0
   10.6850   -0.6670   22.5890 C   0  0  0  0  0  0  0  0  0  0  0  0
   11.7220   -1.5790   22.3560 C   0  0  0  0  0  0  0  0  0  0  0  0
   13.0260   -1.1300   22.3410 C   0  0  0  0  0  0  0  0  0  0  0  0
   13.2560    0.2260   22.5600 C   0  0  0  0  0  0  0  0  0  0  0  0
   12.1720    1.2180   22.8040 C   0  0  0  0  0  0  0  0  0  0  0  0
   10.8850    0.7160   22.8080 C   0  0  0  0  0  0  0  0  0  0  0  0
    9.4200   -2.1030   23.6070 C   0  0  0  0  0  0  0  0  0  0  0  0
   10.4830   -2.5010   24.4560 O   0  0  0  0  0  0  0  0  0  0  0  0
    8.0600   -2.6310   23.5510 N   0  0  0  0  0  0  0  0  0  0  0  0
    7.1500   -1.7360   24.2620 C   0  0  0  0  0  0  0  0  0  0  0  0
    6.6730   -0.6780   23.4820 C   0  0  0  0  0  0  0  0  0  0  0  0
    5.8000    0.2810   23.9990 C   0  0  0  0  0  0  0  0  0  0  0  0
    5.3470    0.2450   25.3280 C   0  0  0  0  0  0  0  0  0  0  0  0
    5.8050   -0.8470   26.2220 N   0  0  0  0  0  0  0  0  0  0  0  0
    6.7230   -1.8140   25.5920 C   0  0  0  0  0  0  0  0  0  0  0  0
    6.3970   -5.3240   21.9250 N   0  0  0  0  0  0  0  0  0  0  0  0
    7.1790   -5.0190   22.9810 C   0  0  0  0  0  0  0  0  0  0  0  0
    6.3130   -4.4750   24.0240 C   0  0  0  0  0  0  0  0  0  0  0  0
    5.3220   -5.5440   24.3330 N   0  0  0  0  0  0  0  0  0  0  0  0
    4.5410   -5.5880   25.8270 S   0  0  0  0  0  0  0  0  0  0  0  0
    3.8160   -6.8330   25.9450 O   0  0  0  0  0  0  0  0  0  0  0  0
    5.5290   -5.2310   26.8180 O   0  0  0  0  0  0  0  0  0  0  0  0
    3.3390   -4.2770   25.7870 C   0  0  0  0  0  0  0  0  0  0  0  0
    1.9870   -4.6280   25.6010 C   0  0  0  0  0  0  0  0  0  0  0  0
    0.9990   -3.6310   25.5730 C   0  0  0  0  0  0  0  0  0  0  0  0
    1.3310   -2.2920   25.7290 C   0  0  0  0  0  0  0  0  0  0  0  0
    2.7980   -1.9190   25.9260 C   0  0  0  0  0  0  0  0  0  0  0  0
    3.1600   -0.6390   26.0770 F   0  0  0  0  0  0  0  0  0  0  0  0
    3.7450   -2.9340   25.9460 C   0  0  0  0  0  0  0  0  0  0  0  0
    4.6090   -5.8760   23.2200 C   0  0  0  0  0  0  0  0  0  0  0  0
    5.5050   -6.3110   22.2320 C   0  0  0  0  0  0  0  0  0  0  0  0
  1  2  2  0
  2  3  1  0
  4  3  1  6
  4  5  1  0
  5  6  1  0
  6  7  1  0
  7  8  2  0
  8  9  1  0
  9 10  2  0
 10 11  1  0
  7 12  1  0
 11 12  2  0
  6 13  1  0
 13 14  2  0
  4 15  1  0
 13 15  1  0
 15 16  1  0
 16 17  2  0
 17 18  1  0
 18 19  2  0
 19 20  1  0
 16 21  1  0
 20 21  2  0
  2 22  1  0
 22 23  1  0
 23 24  1  0
 24 25  1  0
 25 26  1  0
 26 27  2  0
 26 28  2  0
 26 29  1  0
 29 30  2  0
 30 31  1  0
 31 32  2  0
 32 33  1  0
 33 34  1  0
 29 35  1  0
 33 35  2  0
 25 36  1  0
 22 37  1  0
 36 37  1  0
M  END
