ZAC-MCD-2bc172dc-1
     RDKit          3D

 24 25  0  0  0  0  0  0  0  0999 V2000
    6.2240    0.0810   20.7890 O   0  0  0  0  0  0  0  0  0  0  0  0
    5.7180   -0.4710   21.7560 C   0  0  0  0  0  0  0  0  0  0  0  0
    5.0850    0.3020   22.6710 O   0  0  0  0  0  0  0  0  0  0  0  0
    5.7260   -1.9550   22.0510 C   0  0  0  0  0  0  0  0  0  0  0  0
    6.5200   -2.7570   21.0510 C   0  0  0  0  0  0  0  0  0  0  0  0
    5.9750   -4.1510   20.8260 C   0  0  0  0  0  0  0  0  0  0  0  0
    5.3510   -4.4160   19.8040 O   0  0  0  0  0  0  0  0  0  0  0  0
    6.2310   -5.0730   21.8090 N   0  0  0  0  0  0  0  0  0  0  0  0
    7.2420   -4.8480   22.8070 C   0  0  0  0  0  0  0  0  0  0  0  0
    6.6120   -4.9860   24.1790 C   0  0  0  0  0  0  0  0  0  0  0  0
    5.2480   -5.4080   24.1630 N   0  0  0  0  0  0  0  0  0  0  0  0
    4.5920   -5.5350   25.7220 S   0  0  0  0  0  0  0  0  0  0  0  0
    3.9200   -6.8170   25.8220 O   0  0  0  0  0  0  0  0  0  0  0  0
    5.6220   -5.1610   26.6680 O   0  0  0  0  0  0  0  0  0  0  0  0
    3.3680   -4.3220   25.8100 C   0  0  0  0  0  0  0  0  0  0  0  0
    3.6950   -2.8560   25.9150 C   0  0  0  0  0  0  0  0  0  0  0  0
    2.7540   -1.8340   25.9960 C   0  0  0  0  0  0  0  0  0  0  0  0
    3.1180   -0.5380   26.0880 F   0  0  0  0  0  0  0  0  0  0  0  0
    1.4210   -2.2070   25.9790 C   0  0  0  0  0  0  0  0  0  0  0  0
    0.9150   -3.5000   25.8830 C   0  0  0  0  0  0  0  0  0  0  0  0
   -0.4070   -3.7040   25.8750 F   0  0  0  0  0  0  0  0  0  0  0  0
    1.8550   -4.6750   25.7890 C   0  0  0  0  0  0  0  0  0  0  0  0
    4.5450   -5.9390   23.1220 C   0  0  0  0  0  0  0  0  0  0  0  0
    5.4410   -6.1960   22.0800 C   0  0  0  0  0  0  0  0  0  0  0  0
  1  2  2  0
  2  3  1  0
  2  4  1  0
  4  5  1  0
  5  6  1  0
  6  7  2  0
  6  8  1  0
  8  9  1  0
  9 10  1  0
 10 11  1  0
 11 12  1  0
 12 13  2  0
 12 14  2  0
 12 15  1  0
 15 16  2  0
 16 17  1  0
 17 18  1  0
 17 19  2  0
 19 20  1  0
 20 21  1  0
 15 22  1  0
 20 22  2  0
 11 23  1  0
  8 24  1  0
 23 24  1  0
M  END
