WPC0998_minimised.pdb
     RDKit          3D

 20 21  0  0  0  0  0  0  0  0999 V2000
   12.1820    3.8600   22.3830 C   0  0  0  0  0  0  0  0  0  0  0  0
   12.9850    3.3180   23.4430 O   0  0  0  0  0  0  0  0  0  0  0  0
   13.8750    2.2940   22.9410 N   0  0  0  0  0  0  0  0  0  0  0  0
   13.5470    0.9870   23.5380 C   0  0  0  0  0  0  0  0  0  0  0  0
   12.1470    0.5100   23.2130 C   0  0  0  0  0  0  0  0  0  0  0  0
   11.9330   -0.3780   22.1460 C   0  0  0  0  0  0  0  0  0  0  0  0
   10.6270   -0.7520   21.8040 C   0  0  0  0  0  0  0  0  0  0  0  0
    9.5350   -0.2320   22.5150 C   0  0  0  0  0  0  0  0  0  0  0  0
    8.2210   -0.4350   22.0510 N   0  0  0  0  0  0  0  0  0  0  0  0
    7.8080   -0.1360   20.7820 C   0  0  0  0  0  0  0  0  0  0  0  0
    8.5570    0.1260   19.8600 O   0  0  0  0  0  0  0  0  0  0  0  0
    6.4480   -0.1010   20.6560 N   0  0  0  0  0  0  0  0  0  0  0  0
    5.7680    0.4700   19.5550 C   0  0  0  0  0  0  0  0  0  0  0  0
    4.8010    1.4530   19.7930 C   0  0  0  0  0  0  0  0  0  0  0  0
    4.2560    2.1110   18.6840 C   0  0  0  0  0  0  0  0  0  0  0  0
    4.7020    1.7840   17.3960 C   0  0  0  0  0  0  0  0  0  0  0  0
    5.6000    0.8020   17.1540 N   0  0  0  0  0  0  0  0  0  0  0  0
    6.1300    0.1740   18.2230 C   0  0  0  0  0  0  0  0  0  0  0  0
    9.7480    0.5990   23.6220 C   0  0  0  0  0  0  0  0  0  0  0  0
   11.0550    0.9650   23.9750 C   0  0  0  0  0  0  0  0  0  0  0  0
  1  2  1  0
  2  3  1  0
  3  4  1  0
  4  5  1  0
  5 20  2  0
  5  6  1  0
  6  7  2  0
  7  8  1  0
  8  9  1  0
  8 19  2  0
  9 10  1  0
 10 11  2  0
 10 12  1  0
 12 13  1  0
 13 14  2  0
 13 18  1  0
 14 15  1  0
 15 16  2  0
 16 17  1  0
 17 18  2  0
 19 20  1  0
M  END
