WPC0609_minimised.pdb
     RDKit          3D

 24 25  0  0  0  0  0  0  0  0999 V2000
   12.6430    5.9270   24.5730 N   0  0  0  0  0  0  0  0  0  0  0  0
   11.7020    5.5710   23.6540 C   0  0  0  0  0  0  0  0  0  0  0  0
   10.1530    6.1400   23.7450 S   0  0  0  0  0  0  0  0  0  0  0  0
   12.1560    4.8040   22.6060 N   0  0  0  0  0  0  0  0  0  0  0  0
   13.2910    4.0270   22.6440 N   0  0  0  0  0  0  0  0  0  0  0  0
   13.1650    2.8290   22.1910 C   0  0  0  0  0  0  0  0  0  0  0  0
   14.2270    1.7550   22.2790 C   0  0  0  0  0  0  0  0  0  0  0  0
   13.8290    0.6310   23.2580 C   0  0  0  0  0  0  0  0  0  0  0  0
   12.3920    0.1900   23.0580 C   0  0  0  0  0  0  0  0  0  0  0  0
   12.0680   -0.7510   22.0670 C   0  0  0  0  0  0  0  0  0  0  0  0
   10.7230   -1.0440   21.8050 C   0  0  0  0  0  0  0  0  0  0  0  0
    9.7040   -0.3860   22.5100 C   0  0  0  0  0  0  0  0  0  0  0  0
    8.3670   -0.4950   22.0830 N   0  0  0  0  0  0  0  0  0  0  0  0
    7.9530   -0.1330   20.8310 C   0  0  0  0  0  0  0  0  0  0  0  0
    8.7070    0.1410   19.9170 O   0  0  0  0  0  0  0  0  0  0  0  0
    6.5940   -0.0620   20.7100 N   0  0  0  0  0  0  0  0  0  0  0  0
    5.9190    0.5090   19.6060 C   0  0  0  0  0  0  0  0  0  0  0  0
    4.9480    1.4910   19.8360 C   0  0  0  0  0  0  0  0  0  0  0  0
    4.4030    2.1390   18.7210 C   0  0  0  0  0  0  0  0  0  0  0  0
    4.8520    1.8070   17.4350 C   0  0  0  0  0  0  0  0  0  0  0  0
    5.7490    0.8230   17.2020 N   0  0  0  0  0  0  0  0  0  0  0  0
    6.2800    0.2040   18.2760 C   0  0  0  0  0  0  0  0  0  0  0  0
   10.0250    0.5040   23.5410 C   0  0  0  0  0  0  0  0  0  0  0  0
   11.3690    0.7870   23.8180 C   0  0  0  0  0  0  0  0  0  0  0  0
  1  2  1  0
  2  3  2  0
  2  4  1  0
  4  5  1  0
  5  6  2  0
  6  7  1  0
  7  8  1  0
  8  9  1  0
  9 24  2  0
  9 10  1  0
 10 11  2  0
 11 12  1  0
 12 13  1  0
 12 23  2  0
 13 14  1  0
 14 15  2  0
 14 16  1  0
 16 17  1  0
 17 18  2  0
 17 22  1  0
 18 19  1  0
 19 20  2  0
 20 21  1  0
 21 22  2  0
 23 24  1  0
M  END
