WPC0894_minimised.pdb
     RDKit          3D

 24 26  0  0  0  0  0  0  0  0999 V2000
   12.6860    6.8330   24.9640 C   0  0  0  0  0  0  0  0  0  0  0  0
   12.3910    5.4940   24.3620 C   0  0  0  0  0  0  0  0  0  0  0  0
   13.3680    4.7840   23.6250 C   0  0  0  0  0  0  0  0  0  0  0  0
   12.7750    3.5950   23.3700 C   0  0  0  0  0  0  0  0  0  0  0  0
   13.4750    2.4200   22.7370 C   0  0  0  0  0  0  0  0  0  0  0  0
   13.3520    1.0840   23.5090 C   0  0  0  0  0  0  0  0  0  0  0  0
   12.0210    0.4100   23.2540 C   0  0  0  0  0  0  0  0  0  0  0  0
   11.8580   -0.3790   22.1050 C   0  0  0  0  0  0  0  0  0  0  0  0
   10.5850   -0.8500   21.7630 C   0  0  0  0  0  0  0  0  0  0  0  0
    9.4700   -0.5060   22.5410 C   0  0  0  0  0  0  0  0  0  0  0  0
    8.1640   -0.7050   22.0480 N   0  0  0  0  0  0  0  0  0  0  0  0
    7.7640   -0.3380   20.7890 C   0  0  0  0  0  0  0  0  0  0  0  0
    8.5180   -0.0670   19.8740 O   0  0  0  0  0  0  0  0  0  0  0  0
    6.4060   -0.2410   20.6640 N   0  0  0  0  0  0  0  0  0  0  0  0
    5.7570    0.3870   19.5740 C   0  0  0  0  0  0  0  0  0  0  0  0
    4.8220    1.3980   19.8280 C   0  0  0  0  0  0  0  0  0  0  0  0
    4.3110    2.1030   18.7310 C   0  0  0  0  0  0  0  0  0  0  0  0
    4.7560    1.7930   17.4380 C   0  0  0  0  0  0  0  0  0  0  0  0
    5.6230    0.7880   17.1800 N   0  0  0  0  0  0  0  0  0  0  0  0
    6.1210    0.1150   18.2370 C   0  0  0  0  0  0  0  0  0  0  0  0
    9.6490    0.1890   23.7450 C   0  0  0  0  0  0  0  0  0  0  0  0
   10.9280    0.6320   24.1110 C   0  0  0  0  0  0  0  0  0  0  0  0
   11.5110    3.5410   23.8650 O   0  0  0  0  0  0  0  0  0  0  0  0
   11.2860    4.7810   24.5210 N   0  0  0  0  0  0  0  0  0  0  0  0
  1  2  1  0
  2  3  1  0
  2 24  2  0
  3  4  2  0
  4 23  1  0
  4  5  1  0
  5  6  1  0
  6  7  1  0
  7 22  1  0
  7  8  2  0
  8  9  1  0
  9 10  2  0
 10 11  1  0
 10 21  1  0
 11 12  1  0
 12 13  2  0
 12 14  1  0
 14 15  1  0
 15 16  2  0
 15 20  1  0
 16 17  1  0
 17 18  2  0
 18 19  1  0
 19 20  2  0
 21 22  2  0
 23 24  1  0
M  END
