WPC0946_minimised.pdb
     RDKit          3D

 22 23  0  0  0  0  0  0  0  0999 V2000
    8.4520   -0.0040   19.8880 O   0  0  0  0  0  0  0  0  0  0  0  0
    7.6750   -0.3110   20.7740 C   0  0  0  0  0  0  0  0  0  0  0  0
    8.0440   -0.7050   22.0330 N   0  0  0  0  0  0  0  0  0  0  0  0
    9.3390   -0.5300   22.5600 C   0  0  0  0  0  0  0  0  0  0  0  0
   10.4650   -0.8920   21.8050 C   0  0  0  0  0  0  0  0  0  0  0  0
   11.7400   -0.4630   22.1900 C   0  0  0  0  0  0  0  0  0  0  0  0
   11.8890    0.3100   23.3510 C   0  0  0  0  0  0  0  0  0  0  0  0
   13.2280    0.9450   23.6560 C   0  0  0  0  0  0  0  0  0  0  0  0
   13.3140    2.3860   23.1080 C   0  0  0  0  0  0  0  0  0  0  0  0
   12.2620    3.2790   23.6060 N   0  0  0  0  0  0  0  0  0  0  0  0
   12.2270    4.6140   23.2670 C   0  0  0  0  0  0  0  0  0  0  0  0
   13.4510    5.3880   22.4340 S   0  0  0  0  0  0  0  0  0  0  0  0
   10.7800    5.4670   23.8980 S   0  0  0  0  0  0  0  0  0  0  0  0
   10.7800    0.5540   24.1820 C   0  0  0  0  0  0  0  0  0  0  0  0
    9.5010    0.1450   23.7780 C   0  0  0  0  0  0  0  0  0  0  0  0
    6.3190   -0.2370   20.6190 N   0  0  0  0  0  0  0  0  0  0  0  0
    5.6780    0.3930   19.5280 C   0  0  0  0  0  0  0  0  0  0  0  0
    4.7240    1.3870   19.7790 C   0  0  0  0  0  0  0  0  0  0  0  0
    4.2160    2.0910   18.6800 C   0  0  0  0  0  0  0  0  0  0  0  0
    4.6800    1.7950   17.3910 C   0  0  0  0  0  0  0  0  0  0  0  0
    5.5660    0.8050   17.1360 N   0  0  0  0  0  0  0  0  0  0  0  0
    6.0630    0.1350   18.1940 C   0  0  0  0  0  0  0  0  0  0  0  0
  1  2  2  0
  2  3  1  0
  2 16  1  0
  3  4  1  0
  4  5  2  0
  4 15  1  0
  5  6  1  0
  6  7  2  0
  7  8  1  0
  7 14  1  0
  8  9  1  0
  9 10  1  0
 10 11  1  0
 11 12  2  0
 11 13  1  0
 14 15  2  0
 16 17  1  0
 17 18  2  0
 17 22  1  0
 18 19  1  0
 19 20  2  0
 20 21  1  0
 21 22  2  0
M  END
