WPC0497_minimised.pdb
     RDKit          3D

 21 22  0  0  0  0  0  0  0  0999 V2000
   13.1700    5.1700   21.6780 C   0  0  0  0  0  0  0  0  0  0  0  0
   13.8090    4.6830   22.9790 C   0  0  0  0  0  0  0  0  0  0  0  0
   13.3590    3.3280   23.3080 N   0  0  0  0  0  0  0  0  0  0  0  0
   14.1140    2.2410   22.6650 C   0  0  0  0  0  0  0  0  0  0  0  0
   13.7660    0.8690   23.2730 C   0  0  0  0  0  0  0  0  0  0  0  0
   12.3220    0.4730   23.0370 C   0  0  0  0  0  0  0  0  0  0  0  0
   11.9980   -0.4010   21.9870 C   0  0  0  0  0  0  0  0  0  0  0  0
   10.6560   -0.7040   21.7260 C   0  0  0  0  0  0  0  0  0  0  0  0
    9.6340   -0.1190   22.4880 C   0  0  0  0  0  0  0  0  0  0  0  0
    8.2880   -0.2570   22.0900 N   0  0  0  0  0  0  0  0  0  0  0  0
    7.8370    0.0170   20.8260 C   0  0  0  0  0  0  0  0  0  0  0  0
    8.5630    0.2520   19.8790 O   0  0  0  0  0  0  0  0  0  0  0  0
    6.4740    0.0480   20.7270 N   0  0  0  0  0  0  0  0  0  0  0  0
    5.7750    0.5670   19.6110 C   0  0  0  0  0  0  0  0  0  0  0  0
    4.8020    1.5510   19.8220 C   0  0  0  0  0  0  0  0  0  0  0  0
    4.2450    2.1660   18.6940 C   0  0  0  0  0  0  0  0  0  0  0  0
    4.6850    1.7970   17.4150 C   0  0  0  0  0  0  0  0  0  0  0  0
    5.5820    0.8080   17.1990 N   0  0  0  0  0  0  0  0  0  0  0  0
    6.1240    0.2230   18.2870 C   0  0  0  0  0  0  0  0  0  0  0  0
    9.9560    0.7010   23.5770 C   0  0  0  0  0  0  0  0  0  0  0  0
   11.3000    0.9900   23.8560 C   0  0  0  0  0  0  0  0  0  0  0  0
  1  2  1  0
  2  3  1  0
  3  4  1  0
  4  5  1  0
  5  6  1  0
  6 21  2  0
  6  7  1  0
  7  8  2  0
  8  9  1  0
  9 10  1  0
  9 20  2  0
 10 11  1  0
 11 12  2  0
 11 13  1  0
 13 14  1  0
 14 15  2  0
 14 19  1  0
 15 16  1  0
 16 17  2  0
 17 18  1  0
 18 19  2  0
 20 21  1  0
M  END
