WPC0258_minimised.pdb
     RDKit          3D

 23 25  0  0  0  0  0  0  0  0999 V2000
    9.2250    0.9530   20.6490 O   0  0  0  0  0  0  0  0  0  0  0  0
    8.8280    0.1030   21.4180 C   0  0  0  0  0  0  0  0  0  0  0  0
    9.6830   -0.4860   22.3160 N   0  0  0  0  0  0  0  0  0  0  0  0
   11.0520   -0.1820   22.4420 C   0  0  0  0  0  0  0  0  0  0  0  0
   12.0130   -1.1260   22.0560 C   0  0  0  0  0  0  0  0  0  0  0  0
   13.3790   -0.7980   22.0970 C   0  0  0  0  0  0  0  0  0  0  0  0
   13.7780    0.4710   22.5490 C   0  0  0  0  0  0  0  0  0  0  0  0
   12.8140    1.4100   22.9480 C   0  0  0  0  0  0  0  0  0  0  0  0
   11.4510    1.0850   22.8900 C   0  0  0  0  0  0  0  0  0  0  0  0
    7.5020   -0.3290   21.3840 N   0  0  0  0  0  0  0  0  0  0  0  0
    6.9420   -1.3540   22.2890 C   0  0  0  0  0  0  0  0  0  0  0  0
    7.2960   -1.2020   23.7660 C   0  0  0  0  0  0  0  0  0  0  0  0
    7.7490   -2.3180   24.4960 C   0  0  0  0  0  0  0  0  0  0  0  0
    8.1760   -2.1720   25.8270 C   0  0  0  0  0  0  0  0  0  0  0  0
    8.1600   -0.9060   26.4340 C   0  0  0  0  0  0  0  0  0  0  0  0
    7.6990    0.2080   25.7160 C   0  0  0  0  0  0  0  0  0  0  0  0
    7.2610    0.0620   24.3890 C   0  0  0  0  0  0  0  0  0  0  0  0
    6.6530    0.1560   20.3430 C   0  0  0  0  0  0  0  0  0  0  0  0
    5.6110    1.0530   20.6240 C   0  0  0  0  0  0  0  0  0  0  0  0
    4.9160    1.6120   19.5390 C   0  0  0  0  0  0  0  0  0  0  0  0
    5.2620    1.2520   18.2260 C   0  0  0  0  0  0  0  0  0  0  0  0
    6.2360    0.3570   17.9450 N   0  0  0  0  0  0  0  0  0  0  0  0
    6.9330   -0.1410   18.9890 C   0  0  0  0  0  0  0  0  0  0  0  0
  1  2  2  0
  2  3  1  0
  2 10  1  0
  3  4  1  0
  4  5  2  0
  4  9  1  0
  5  6  1  0
  6  7  2  0
  7  8  1  0
  8  9  2  0
 10 18  1  0
 10 11  1  0
 11 12  1  0
 12 13  2  0
 12 17  1  0
 13 14  1  0
 14 15  2  0
 15 16  1  0
 16 17  2  0
 18 19  2  0
 18 23  1  0
 19 20  1  0
 20 21  2  0
 21 22  1  0
 22 23  2  0
M  END
