WPC0526_minimised.pdb
     RDKit          3D

 24 25  0  0  0  0  0  0  0  0999 V2000
   14.4150    2.9490   21.1970 N   0  0  0  0  0  0  0  0  0  0  0  0
   14.2970    2.6130   22.4110 C   0  0  0  0  0  0  0  0  0  0  0  0
   14.0560    1.2060   22.9190 C   0  0  0  0  0  0  0  0  0  0  0  0
   12.5930    0.7840   22.8770 C   0  0  0  0  0  0  0  0  0  0  0  0
   12.2140   -0.4090   22.2330 C   0  0  0  0  0  0  0  0  0  0  0  0
   10.8560   -0.7210   22.0660 C   0  0  0  0  0  0  0  0  0  0  0  0
    9.8710    0.1450   22.5640 C   0  0  0  0  0  0  0  0  0  0  0  0
    8.5130   -0.0650   22.2500 N   0  0  0  0  0  0  0  0  0  0  0  0
    8.0080    0.0760   20.9860 C   0  0  0  0  0  0  0  0  0  0  0  0
    8.7010    0.2240   20.0000 O   0  0  0  0  0  0  0  0  0  0  0  0
    6.6410    0.0810   20.9240 N   0  0  0  0  0  0  0  0  0  0  0  0
    5.8980    0.5050   19.7950 C   0  0  0  0  0  0  0  0  0  0  0  0
    4.9020    1.4740   19.9730 C   0  0  0  0  0  0  0  0  0  0  0  0
    4.2840    1.9920   18.8300 C   0  0  0  0  0  0  0  0  0  0  0  0
    4.6810    1.5390   17.5630 C   0  0  0  0  0  0  0  0  0  0  0  0
    5.5990    0.5640   17.3790 N   0  0  0  0  0  0  0  0  0  0  0  0
    6.2080    0.0790   18.4820 C   0  0  0  0  0  0  0  0  0  0  0  0
   10.2440    1.2930   23.2770 C   0  0  0  0  0  0  0  0  0  0  0  0
   11.6010    1.6080   23.4400 C   0  0  0  0  0  0  0  0  0  0  0  0
   14.3480    3.6200   23.3230 N   0  0  0  0  0  0  0  0  0  0  0  0
   13.7510    4.9720   23.1480 C   0  0  0  0  0  0  0  0  0  0  0  0
   12.3100    4.9710   22.6240 C   0  0  0  0  0  0  0  0  0  0  0  0
   11.3910    5.5020   23.2170 O   0  0  0  0  0  0  0  0  0  0  0  0
   12.1790    4.4290   21.4050 O   0  0  0  0  0  0  0  0  0  0  0  0
  1  2  2  0
  2 20  1  0
  2  3  1  0
  3  4  1  0
  4 19  2  0
  4  5  1  0
  5  6  2  0
  6  7  1  0
  7  8  1  0
  7 18  2  0
  8  9  1  0
  9 10  2  0
  9 11  1  0
 11 12  1  0
 12 13  2  0
 12 17  1  0
 13 14  1  0
 14 15  2  0
 15 16  1  0
 16 17  2  0
 18 19  1  0
 20 21  1  0
 21 22  1  0
 22 23  2  0
 22 24  1  0
M  END
