WPC0937_minimised.pdb
     RDKit          3D

 23 24  0  0  1  0  0  0  0  0999 V2000
   11.0810    4.3350   23.5950 C   0  0  0  0  0  0  0  0  0  0  0  0
   12.4460    3.7810   23.5040 N   0  0  0  0  0  0  0  0  0  0  0  0
   13.4530    4.8570   23.4650 C   0  0  0  0  0  0  0  0  0  0  0  0
   12.5840    2.8590   22.3550 C   0  0  0  0  0  0  0  0  0  0  0  0
   13.6560    1.7580   22.5670 C   0  0  0  0  0  0  0  0  0  0  0  0
   13.2740    0.7260   23.6530 C   0  0  2  0  0  0  0  0  0  0  0  0
   14.2410   -0.3200   23.7040 O   0  0  0  0  0  0  0  0  0  0  0  0
   11.8990    0.1370   23.3990 C   0  0  0  0  0  0  0  0  0  0  0  0
   11.6870   -0.7240   22.3090 C   0  0  0  0  0  0  0  0  0  0  0  0
   10.3810   -1.0560   21.9270 C   0  0  0  0  0  0  0  0  0  0  0  0
    9.2870   -0.5160   22.6200 C   0  0  0  0  0  0  0  0  0  0  0  0
    7.9900   -0.6000   22.0760 N   0  0  0  0  0  0  0  0  0  0  0  0
    7.6800   -0.2130   20.7990 C   0  0  0  0  0  0  0  0  0  0  0  0
    8.4940    0.0070   19.9230 O   0  0  0  0  0  0  0  0  0  0  0  0
    6.3370   -0.0460   20.6150 N   0  0  0  0  0  0  0  0  0  0  0  0
    5.7440    0.5730   19.4900 C   0  0  0  0  0  0  0  0  0  0  0  0
    4.7810    1.5680   19.6930 C   0  0  0  0  0  0  0  0  0  0  0  0
    4.3030    2.2490   18.5680 C   0  0  0  0  0  0  0  0  0  0  0  0
    4.8090    1.9340   17.2990 C   0  0  0  0  0  0  0  0  0  0  0  0
    5.7020    0.9410   17.0890 N   0  0  0  0  0  0  0  0  0  0  0  0
    6.1680    0.2900   18.1740 C   0  0  0  0  0  0  0  0  0  0  0  0
    9.4960    0.2600   23.7670 C   0  0  0  0  0  0  0  0  0  0  0  0
   10.8020    0.5850   24.1590 C   0  0  0  0  0  0  0  0  0  0  0  0
  1  2  1  0
  2  3  1  0
  2  4  1  0
  4  5  1  0
  5  6  1  0
  6  7  1  6
  6  8  1  0
  8 23  2  0
  8  9  1  0
  9 10  2  0
 10 11  1  0
 11 12  1  0
 11 22  2  0
 12 13  1  0
 13 14  2  0
 13 15  1  0
 15 16  1  0
 16 17  2  0
 16 21  1  0
 17 18  1  0
 18 19  2  0
 19 20  1  0
 20 21  2  0
 22 23  1  0
M  END
