WPC0050_minimised.pdb
     RDKit          3D

 18 19  0  0  0  0  0  0  0  0999 V2000
    5.7540    3.5110   21.8070 C   0  0  0  0  0  0  0  0  0  0  0  0
    4.7420    2.4030   21.4580 C   0  0  0  0  0  0  0  0  0  0  0  0
    5.0530    1.7190   20.1300 C   0  0  0  0  0  0  0  0  0  0  0  0
    4.4720    2.2080   18.9520 C   0  0  0  0  0  0  0  0  0  0  0  0
    4.8410    1.6730   17.7100 C   0  0  0  0  0  0  0  0  0  0  0  0
    5.6920    0.6340   17.5760 N   0  0  0  0  0  0  0  0  0  0  0  0
    6.2540    0.1610   18.7070 C   0  0  0  0  0  0  0  0  0  0  0  0
    5.9820    0.6700   19.9990 C   0  0  0  0  0  0  0  0  0  0  0  0
    6.7490    0.2330   21.1140 N   0  0  0  0  0  0  0  0  0  0  0  0
    8.1190    0.2330   21.1220 C   0  0  0  0  0  0  0  0  0  0  0  0
    8.7570    0.4630   20.1160 O   0  0  0  0  0  0  0  0  0  0  0  0
    8.7090   -0.0150   22.3310 N   0  0  0  0  0  0  0  0  0  0  0  0
   10.1020    0.0870   22.5430 C   0  0  0  0  0  0  0  0  0  0  0  0
   10.9790   -0.8160   21.9210 C   0  0  0  0  0  0  0  0  0  0  0  0
   12.3690   -0.6360   22.0210 C   0  0  0  0  0  0  0  0  0  0  0  0
   12.8830    0.4500   22.7480 C   0  0  0  0  0  0  0  0  0  0  0  0
   12.0050    1.3520   23.3720 C   0  0  0  0  0  0  0  0  0  0  0  0
   10.6170    1.1670   23.2760 C   0  0  0  0  0  0  0  0  0  0  0  0
  1  2  1  0
  2  3  1  0
  3  4  2  0
  3  8  1  0
  4  5  1  0
  5  6  2  0
  6  7  1  0
  7  8  2  0
  8  9  1  0
  9 10  1  0
 10 11  2  0
 10 12  1  0
 12 13  1  0
 13 14  2  0
 13 18  1  0
 14 15  1  0
 15 16  2  0
 16 17  1  0
 17 18  2  0
M  END
