WPC0061_minimised.pdb
     RDKit          3D

 21 22  0  0  0  0  0  0  0  0999 V2000
    8.6880    0.3630   20.0040 O   0  0  0  0  0  0  0  0  0  0  0  0
    8.0320    0.2390   21.0170 C   0  0  0  0  0  0  0  0  0  0  0  0
    8.5970    0.0560   22.2500 N   0  0  0  0  0  0  0  0  0  0  0  0
    9.9880    0.1390   22.4880 C   0  0  0  0  0  0  0  0  0  0  0  0
   10.8660   -0.7820   21.8920 C   0  0  0  0  0  0  0  0  0  0  0  0
   12.2550   -0.6280   22.0330 C   0  0  0  0  0  0  0  0  0  0  0  0
   12.7690    0.4510   22.7710 C   0  0  0  0  0  0  0  0  0  0  0  0
   11.8910    1.3680   23.3720 C   0  0  0  0  0  0  0  0  0  0  0  0
   10.5020    1.2090   23.2350 C   0  0  0  0  0  0  0  0  0  0  0  0
    6.6660    0.3080   20.9970 N   0  0  0  0  0  0  0  0  0  0  0  0
    5.9170    0.7590   19.8800 C   0  0  0  0  0  0  0  0  0  0  0  0
    6.2100    0.3010   18.5740 C   0  0  0  0  0  0  0  0  0  0  0  0
    5.6510    0.8110   17.4570 N   0  0  0  0  0  0  0  0  0  0  0  0
    4.7820    1.8330   17.6190 C   0  0  0  0  0  0  0  0  0  0  0  0
    4.3840    2.3100   18.8770 C   0  0  0  0  0  0  0  0  0  0  0  0
    4.9480    1.7660   20.0410 C   0  0  0  0  0  0  0  0  0  0  0  0
    4.5580    2.4470   21.6550 S   0  0  0  0  0  0  0  0  0  0  0  0
    2.7310    2.7330   21.6960 C   0  0  0  0  0  0  0  0  0  0  0  0
    2.0510    1.6380   21.2810 F   0  0  0  0  0  0  0  0  0  0  0  0
    2.3080    2.9720   22.9560 F   0  0  0  0  0  0  0  0  0  0  0  0
    2.3060    3.7620   20.9380 F   0  0  0  0  0  0  0  0  0  0  0  0
  1  2  2  0
  2  3  1  0
  2 10  1  0
  3  4  1  0
  4  5  2  0
  4  9  1  0
  5  6  1  0
  6  7  2  0
  7  8  1  0
  8  9  2  0
 10 11  1  0
 11 12  2  0
 11 16  1  0
 12 13  1  0
 13 14  2  0
 14 15  1  0
 15 16  2  0
 16 17  1  0
 17 18  1  0
 18 20  1  0
 18 21  1  0
 18 19  1  0
M  END
