WPC0801_minimised.pdb
     RDKit          3D

 23 24  0  0  0  0  0  0  0  0999 V2000
   14.9850    1.4960   22.5500 O   0  0  0  0  0  0  0  0  0  0  0  0
   13.8670    1.5170   23.0140 C   0  0  0  0  0  0  0  0  0  0  0  0
   13.2820    0.2870   23.6760 C   0  0  0  0  0  0  0  0  0  0  0  0
   11.8290    0.0280   23.3280 C   0  0  0  0  0  0  0  0  0  0  0  0
   11.5220   -0.7980   22.2360 C   0  0  0  0  0  0  0  0  0  0  0  0
   10.1890   -0.9740   21.8510 C   0  0  0  0  0  0  0  0  0  0  0  0
    9.1620   -0.3170   22.5450 C   0  0  0  0  0  0  0  0  0  0  0  0
    7.8510   -0.3300   22.0360 N   0  0  0  0  0  0  0  0  0  0  0  0
    7.5350    0.0130   20.7500 C   0  0  0  0  0  0  0  0  0  0  0  0
    8.3520    0.2080   19.8700 O   0  0  0  0  0  0  0  0  0  0  0  0
    6.1900    0.1550   20.5590 N   0  0  0  0  0  0  0  0  0  0  0  0
    5.5920    0.7320   19.4170 C   0  0  0  0  0  0  0  0  0  0  0  0
    4.6140    1.7180   19.5910 C   0  0  0  0  0  0  0  0  0  0  0  0
    4.1420    2.3730   18.4480 C   0  0  0  0  0  0  0  0  0  0  0  0
    4.6670    2.0400   17.1920 C   0  0  0  0  0  0  0  0  0  0  0  0
    5.5710    1.0510   17.0090 N   0  0  0  0  0  0  0  0  0  0  0  0
    6.0300    0.4250   18.1100 C   0  0  0  0  0  0  0  0  0  0  0  0
    9.4590    0.4500   23.6800 C   0  0  0  0  0  0  0  0  0  0  0  0
   10.7930    0.6170   24.0780 C   0  0  0  0  0  0  0  0  0  0  0  0
   13.0710    2.6330   22.9570 N   0  0  0  0  0  0  0  0  0  0  0  0
   13.4400    3.8260   22.1930 C   0  0  0  0  0  0  0  0  0  0  0  0
   12.7370    5.0880   22.7070 C   0  0  0  0  0  0  0  0  0  0  0  0
   11.3140    4.9280   22.7390 O   0  0  0  0  0  0  0  0  0  0  0  0
  1  2  2  0
  2 20  1  0
  2  3  1  0
  3  4  1  0
  4 19  2  0
  4  5  1  0
  5  6  2  0
  6  7  1  0
  7  8  1  0
  7 18  2  0
  8  9  1  0
  9 10  2  0
  9 11  1  0
 11 12  1  0
 12 13  2  0
 12 17  1  0
 13 14  1  0
 14 15  2  0
 15 16  1  0
 16 17  2  0
 18 19  1  0
 20 21  1  0
 21 22  1  0
 22 23  1  0
M  END
