WPC0847_minimised.pdb
     RDKit          3D

 24 26  0  0  0  0  0  0  0  0999 V2000
    8.5870    0.1160   19.8020 O   0  0  0  0  0  0  0  0  0  0  0  0
    7.8640   -0.0200   20.7680 C   0  0  0  0  0  0  0  0  0  0  0  0
    8.3170   -0.2020   22.0430 N   0  0  0  0  0  0  0  0  0  0  0  0
    9.6560   -0.0100   22.4330 C   0  0  0  0  0  0  0  0  0  0  0  0
   10.6680   -0.8620   21.9670 C   0  0  0  0  0  0  0  0  0  0  0  0
   12.0090   -0.6020   22.2920 C   0  0  0  0  0  0  0  0  0  0  0  0
   12.3400    0.5220   23.0690 C   0  0  0  0  0  0  0  0  0  0  0  0
   13.7800    0.8170   23.4410 C   0  0  0  0  0  0  0  0  0  0  0  0
   14.4510    1.7180   22.5050 N   0  0  0  0  0  0  0  0  0  0  0  0
   14.2310    3.0430   22.3390 C   0  0  0  0  0  0  0  0  0  0  0  0
   14.8220    3.4820   21.2470 N   0  0  0  0  0  0  0  0  0  0  0  0
   14.7320    4.7870   21.0110 C   0  0  0  0  0  0  0  0  0  0  0  0
   14.0380    5.6330   21.8690 C   0  0  0  0  0  0  0  0  0  0  0  0
   13.4330    5.0500   22.9810 C   0  0  0  0  0  0  0  0  0  0  0  0
   13.5390    3.7410   23.2330 N   0  0  0  0  0  0  0  0  0  0  0  0
   11.3170    1.3560   23.5540 C   0  0  0  0  0  0  0  0  0  0  0  0
    9.9780    1.0910   23.2360 C   0  0  0  0  0  0  0  0  0  0  0  0
    6.5010    0.0580   20.6880 N   0  0  0  0  0  0  0  0  0  0  0  0
    5.7940    0.5810   19.5790 C   0  0  0  0  0  0  0  0  0  0  0  0
    4.8270    1.5690   19.8050 C   0  0  0  0  0  0  0  0  0  0  0  0
    4.2520    2.1840   18.6860 C   0  0  0  0  0  0  0  0  0  0  0  0
    4.6660    1.8090   17.4010 C   0  0  0  0  0  0  0  0  0  0  0  0
    5.5570    0.8170   17.1720 N   0  0  0  0  0  0  0  0  0  0  0  0
    6.1200    0.2340   18.2500 C   0  0  0  0  0  0  0  0  0  0  0  0
  1  2  2  0
  2  3  1  0
  2 18  1  0
  3  4  1  0
  4  5  2  0
  4 17  1  0
  5  6  1  0
  6  7  2  0
  7  8  1  0
  7 16  1  0
  8  9  1  0
  9 10  1  0
 10 11  2  0
 10 15  1  0
 11 12  1  0
 12 13  2  0
 13 14  1  0
 14 15  2  0
 16 17  2  0
 18 19  1  0
 19 20  2  0
 19 24  1  0
 20 21  1  0
 21 22  2  0
 22 23  1  0
 23 24  2  0
M  END
