WPC0561_minimised.pdb
     RDKit          3D

 24 25  0  0  0  0  0  0  0  0999 V2000
   12.1470    5.2920   23.2000 C   0  0  0  0  0  0  0  0  0  0  0  0
   13.7610    5.1310   22.4780 S   0  0  0  0  0  0  0  0  0  0  0  0
   14.0060    6.1800   21.5220 O   0  0  0  0  0  0  0  0  0  0  0  0
   14.7370    4.7080   23.4480 O   0  0  0  0  0  0  0  0  0  0  0  0
   13.7010    3.7760   21.6040 N   0  0  0  0  0  0  0  0  0  0  0  0
   13.2180    2.5760   22.2830 C   0  0  0  0  0  0  0  0  0  0  0  0
   14.1530    1.3750   22.0560 C   0  0  0  0  0  0  0  0  0  0  0  0
   13.8000    0.2010   22.9930 C   0  0  0  0  0  0  0  0  0  0  0  0
   12.3260   -0.1490   22.9130 C   0  0  0  0  0  0  0  0  0  0  0  0
   11.8740   -1.0250   21.9150 C   0  0  0  0  0  0  0  0  0  0  0  0
   10.5000   -1.2170   21.7320 C   0  0  0  0  0  0  0  0  0  0  0  0
    9.5760   -0.5080   22.5110 C   0  0  0  0  0  0  0  0  0  0  0  0
    8.2250   -0.4710   22.1170 N   0  0  0  0  0  0  0  0  0  0  0  0
    7.8230   -0.0910   20.8630 C   0  0  0  0  0  0  0  0  0  0  0  0
    8.5850    0.1300   19.9400 O   0  0  0  0  0  0  0  0  0  0  0  0
    6.4690    0.0460   20.7460 N   0  0  0  0  0  0  0  0  0  0  0  0
    5.8080    0.5950   19.6210 C   0  0  0  0  0  0  0  0  0  0  0  0
    4.8320    1.5780   19.8210 C   0  0  0  0  0  0  0  0  0  0  0  0
    4.2930    2.1970   18.6870 C   0  0  0  0  0  0  0  0  0  0  0  0
    4.7520    1.8340   17.4130 C   0  0  0  0  0  0  0  0  0  0  0  0
    5.6510    0.8450   17.2070 N   0  0  0  0  0  0  0  0  0  0  0  0
    6.1770    0.2560   18.3000 C   0  0  0  0  0  0  0  0  0  0  0  0
   10.0210    0.2950   23.5690 C   0  0  0  0  0  0  0  0  0  0  0  0
   11.3970    0.4610   23.7780 C   0  0  0  0  0  0  0  0  0  0  0  0
  1  2  1  0
  2  3  2  0
  2  4  2  0
  2  5  1  0
  5  6  1  0
  6  7  1  0
  7  8  1  0
  8  9  1  0
  9 24  2  0
  9 10  1  0
 10 11  2  0
 11 12  1  0
 12 13  1  0
 12 23  2  0
 13 14  1  0
 14 15  2  0
 14 16  1  0
 16 17  1  0
 17 18  2  0
 17 22  1  0
 18 19  1  0
 19 20  2  0
 20 21  1  0
 21 22  2  0
 23 24  1  0
M  END
