WPC0637_minimised.pdb
     RDKit          3D

 22 23  0  0  0  0  0  0  0  0999 V2000
   11.5960    5.7260   24.4010 C   0  0  0  0  0  0  0  0  0  0  0  0
   11.7950    5.1390   22.9940 C   0  0  0  0  0  0  0  0  0  0  0  0
   12.0740    3.7050   23.0450 N   0  0  0  0  0  0  0  0  0  0  0  0
   13.3290    3.1800   23.2390 C   0  0  0  0  0  0  0  0  0  0  0  0
   14.2930    3.9130   23.3770 O   0  0  0  0  0  0  0  0  0  0  0  0
   13.4270    1.6480   23.3620 C   0  0  0  0  0  0  0  0  0  0  0  0
   12.1140    0.9050   23.1560 C   0  0  0  0  0  0  0  0  0  0  0  0
   11.9560    0.0760   22.0360 C   0  0  0  0  0  0  0  0  0  0  0  0
   10.7010   -0.4720   21.7510 C   0  0  0  0  0  0  0  0  0  0  0  0
    9.5940   -0.1690   22.5590 C   0  0  0  0  0  0  0  0  0  0  0  0
    8.2860   -0.4550   22.1130 N   0  0  0  0  0  0  0  0  0  0  0  0
    7.8250   -0.1350   20.8620 C   0  0  0  0  0  0  0  0  0  0  0  0
    8.5380    0.1940   19.9330 O   0  0  0  0  0  0  0  0  0  0  0  0
    6.4630   -0.1540   20.7510 N   0  0  0  0  0  0  0  0  0  0  0  0
    5.7660    0.4100   19.6560 C   0  0  0  0  0  0  0  0  0  0  0  0
    4.8320    1.4260   19.8910 C   0  0  0  0  0  0  0  0  0  0  0  0
    4.2920    2.0830   18.7770 C   0  0  0  0  0  0  0  0  0  0  0  0
    4.7070    1.7190   17.4880 C   0  0  0  0  0  0  0  0  0  0  0  0
    5.5720    0.7070   17.2510 N   0  0  0  0  0  0  0  0  0  0  0  0
    6.1010    0.0840   18.3230 C   0  0  0  0  0  0  0  0  0  0  0  0
    9.7760    0.5610   23.7420 C   0  0  0  0  0  0  0  0  0  0  0  0
   11.0410    1.0810   24.0520 C   0  0  0  0  0  0  0  0  0  0  0  0
  1  2  1  0
  2  3  1  0
  3  4  1  0
  4  5  2  0
  4  6  1  0
  6  7  1  0
  7 22  2  0
  7  8  1  0
  8  9  2  0
  9 10  1  0
 10 11  1  0
 10 21  2  0
 11 12  1  0
 12 13  2  0
 12 14  1  0
 14 15  1  0
 15 16  2  0
 15 20  1  0
 16 17  1  0
 17 18  2  0
 18 19  1  0
 19 20  2  0
 21 22  1  0
M  END
