WPC0602_minimised.pdb
     RDKit          3D

 23 25  0  0  0  0  0  0  0  0999 V2000
    8.4850    0.3080   20.0670 O   0  0  0  0  0  0  0  0  0  0  0  0
    7.7200    0.0090   20.9620 C   0  0  0  0  0  0  0  0  0  0  0  0
    8.1100   -0.3770   22.2160 N   0  0  0  0  0  0  0  0  0  0  0  0
    9.4400   -0.3290   22.6800 C   0  0  0  0  0  0  0  0  0  0  0  0
   10.4710   -0.9400   21.9510 C   0  0  0  0  0  0  0  0  0  0  0  0
   11.8090   -0.7400   22.3190 C   0  0  0  0  0  0  0  0  0  0  0  0
   12.1220    0.0900   23.4060 C   0  0  0  0  0  0  0  0  0  0  0  0
   13.5790    0.3950   23.7230 C   0  0  0  0  0  0  0  0  0  0  0  0
   14.2280    1.4100   22.8740 N   0  0  0  0  0  0  0  0  0  0  0  0
   13.8140    2.6170   22.7840 C   0  0  0  0  0  0  0  0  0  0  0  0
   12.6340    3.0610   23.3340 N   0  0  0  0  0  0  0  0  0  0  0  0
   12.0560    4.3280   22.8890 C   0  0  0  0  0  0  0  0  0  0  0  0
   13.2440    5.1530   22.3950 C   0  0  0  0  0  0  0  0  0  0  0  0
   14.4680    3.9160   21.8460 S   0  0  0  0  0  0  0  0  0  0  0  0
   11.0800    0.6080   24.2010 C   0  0  0  0  0  0  0  0  0  0  0  0
    9.7430    0.4090   23.8320 C   0  0  0  0  0  0  0  0  0  0  0  0
    6.3640    0.0650   20.8100 N   0  0  0  0  0  0  0  0  0  0  0  0
    5.7060    0.6000   19.6760 C   0  0  0  0  0  0  0  0  0  0  0  0
    4.7360    1.5930   19.8580 C   0  0  0  0  0  0  0  0  0  0  0  0
    4.2030    2.1970   18.7120 C   0  0  0  0  0  0  0  0  0  0  0  0
    4.6510    1.7970   17.4450 C   0  0  0  0  0  0  0  0  0  0  0  0
    5.5520    0.8050   17.2580 N   0  0  0  0  0  0  0  0  0  0  0  0
    6.0810    0.2400   18.3620 C   0  0  0  0  0  0  0  0  0  0  0  0
  1  2  2  0
  2  3  1  0
  2 17  1  0
  3  4  1  0
  4  5  2  0
  4 16  1  0
  5  6  1  0
  6  7  2  0
  7  8  1  0
  7 15  1  0
  8  9  1  0
  9 10  2  0
 10 11  1  0
 10 14  1  0
 11 12  1  0
 12 13  1  0
 13 14  1  0
 15 16  2  0
 17 18  1  0
 18 19  2  0
 18 23  1  0
 19 20  1  0
 20 21  2  0
 21 22  1  0
 22 23  2  0
M  END
