WPC0631_minimised.pdb
     RDKit          3D

 24 25  0  0  0  0  0  0  0  0999 V2000
   12.6640    6.9120   25.5600 N   0  0  0  0  0  0  0  0  0  0  0  0
   11.9550    5.9880   24.8780 C   0  0  0  0  0  0  0  0  0  0  0  0
   10.7880    5.8150   25.1120 O   0  0  0  0  0  0  0  0  0  0  0  0
   12.6970    5.2910   23.9850 N   0  0  0  0  0  0  0  0  0  0  0  0
   12.2530    4.2650   23.1890 C   0  0  0  0  0  0  0  0  0  0  0  0
   11.0850    3.9550   23.1130 O   0  0  0  0  0  0  0  0  0  0  0  0
   13.3330    3.5240   22.4150 C   0  0  0  0  0  0  0  0  0  0  0  0
   13.7660    1.8690   23.1500 S   0  0  0  0  0  0  0  0  0  0  0  0
   12.2840    0.9000   23.0120 C   0  0  0  0  0  0  0  0  0  0  0  0
   12.1760   -0.0470   21.9840 C   0  0  0  0  0  0  0  0  0  0  0  0
   10.9380   -0.6560   21.7310 C   0  0  0  0  0  0  0  0  0  0  0  0
    9.8110   -0.3110   22.4960 C   0  0  0  0  0  0  0  0  0  0  0  0
    8.5130   -0.6530   22.0580 N   0  0  0  0  0  0  0  0  0  0  0  0
    8.0390   -0.3340   20.8110 C   0  0  0  0  0  0  0  0  0  0  0  0
    8.7470   -0.0270   19.8710 O   0  0  0  0  0  0  0  0  0  0  0  0
    6.6740   -0.3200   20.7210 N   0  0  0  0  0  0  0  0  0  0  0  0
    5.9660    0.2870   19.6540 C   0  0  0  0  0  0  0  0  0  0  0  0
    5.0290    1.2890   19.9390 C   0  0  0  0  0  0  0  0  0  0  0  0
    4.4680    1.9850   18.8590 C   0  0  0  0  0  0  0  0  0  0  0  0
    4.8670    1.6740   17.5510 C   0  0  0  0  0  0  0  0  0  0  0  0
    5.7320    0.6760   17.2640 N   0  0  0  0  0  0  0  0  0  0  0  0
    6.2810    0.0150   18.3040 C   0  0  0  0  0  0  0  0  0  0  0  0
    9.9540    0.5370   23.6030 C   0  0  0  0  0  0  0  0  0  0  0  0
   11.1970    1.1310   23.8690 C   0  0  0  0  0  0  0  0  0  0  0  0
  1  2  1  0
  2  3  2  0
  2  4  1  0
  4  5  1  0
  5  6  2  0
  5  7  1  0
  7  8  1  0
  8  9  1  0
  9 24  2  0
  9 10  1  0
 10 11  2  0
 11 12  1  0
 12 13  1  0
 12 23  2  0
 13 14  1  0
 14 15  2  0
 14 16  1  0
 16 17  1  0
 17 18  2  0
 17 22  1  0
 18 19  1  0
 19 20  2  0
 20 21  1  0
 21 22  2  0
 23 24  1  0
M  END
