WPC0765_minimised.pdb
     RDKit          3D

 21 22  0  0  0  0  0  0  0  0999 V2000
   13.5730    5.2880   22.0010 O   0  0  0  0  0  0  0  0  0  0  0  0
   12.5620    4.6990   22.3350 C   0  0  0  0  0  0  0  0  0  0  0  0
   12.5650    3.3840   22.7440 N   0  0  0  0  0  0  0  0  0  0  0  0
   13.7450    2.5120   22.6710 C   0  0  0  0  0  0  0  0  0  0  0  0
   13.5280    1.1290   23.3300 C   0  0  0  0  0  0  0  0  0  0  0  0
   12.1520    0.5510   23.0710 C   0  0  0  0  0  0  0  0  0  0  0  0
   11.9410   -0.3060   21.9820 C   0  0  0  0  0  0  0  0  0  0  0  0
   10.6430   -0.7430   21.6900 C   0  0  0  0  0  0  0  0  0  0  0  0
    9.5540   -0.3030   22.4580 C   0  0  0  0  0  0  0  0  0  0  0  0
    8.2360   -0.5250   22.0130 N   0  0  0  0  0  0  0  0  0  0  0  0
    7.7990   -0.1920   20.7580 C   0  0  0  0  0  0  0  0  0  0  0  0
    8.5340    0.1100   19.8370 O   0  0  0  0  0  0  0  0  0  0  0  0
    6.4380   -0.1670   20.6440 N   0  0  0  0  0  0  0  0  0  0  0  0
    5.7520    0.4230   19.5570 C   0  0  0  0  0  0  0  0  0  0  0  0
    4.7970    1.4150   19.8110 C   0  0  0  0  0  0  0  0  0  0  0  0
    4.2600    2.0960   18.7120 C   0  0  0  0  0  0  0  0  0  0  0  0
    4.7000    1.7820   17.4180 C   0  0  0  0  0  0  0  0  0  0  0  0
    5.5830    0.7910   17.1610 N   0  0  0  0  0  0  0  0  0  0  0  0
    6.1070    0.1420   18.2200 C   0  0  0  0  0  0  0  0  0  0  0  0
    9.7730    0.4860   23.5940 C   0  0  0  0  0  0  0  0  0  0  0  0
   11.0740    0.9030   23.9080 C   0  0  0  0  0  0  0  0  0  0  0  0
  1  2  2  0
  2  3  1  0
  3  4  1  0
  4  5  1  0
  5  6  1  0
  6 21  2  0
  6  7  1  0
  7  8  2  0
  8  9  1  0
  9 10  1  0
  9 20  2  0
 10 11  1  0
 11 12  2  0
 11 13  1  0
 13 14  1  0
 14 15  2  0
 14 19  1  0
 15 16  1  0
 16 17  2  0
 17 18  1  0
 18 19  2  0
 20 21  1  0
M  END
