WPC0458_minimised.pdb
     RDKit          3D

 23 24  0  0  0  0  0  0  0  0999 V2000
   12.2650    5.3700   23.9310 C   0  0  0  0  0  0  0  0  0  0  0  0
   12.8660    5.0590   22.5420 C   0  0  0  0  0  0  0  0  0  0  0  0
   13.9210    3.9410   22.5610 C   0  0  0  0  0  0  0  0  0  0  0  0
   13.3330    2.7580   23.1280 O   0  0  0  0  0  0  0  0  0  0  0  0
   14.0310    1.5960   23.0190 C   0  0  0  0  0  0  0  0  0  0  0  0
   15.1060    1.4890   22.4630 O   0  0  0  0  0  0  0  0  0  0  0  0
   13.3550    0.4120   23.6870 C   0  0  0  0  0  0  0  0  0  0  0  0
   11.8920    0.2220   23.3260 C   0  0  0  0  0  0  0  0  0  0  0  0
   11.5170   -0.7770   22.4110 C   0  0  0  0  0  0  0  0  0  0  0  0
   10.1740   -0.9130   22.0330 C   0  0  0  0  0  0  0  0  0  0  0  0
    9.2010   -0.0690   22.5880 C   0  0  0  0  0  0  0  0  0  0  0  0
    7.8740   -0.1120   22.1220 N   0  0  0  0  0  0  0  0  0  0  0  0
    7.5150    0.1270   20.8260 C   0  0  0  0  0  0  0  0  0  0  0  0
    8.3010    0.2430   19.9070 O   0  0  0  0  0  0  0  0  0  0  0  0
    6.1660    0.2650   20.6680 N   0  0  0  0  0  0  0  0  0  0  0  0
    5.5350    0.7820   19.5130 C   0  0  0  0  0  0  0  0  0  0  0  0
    4.5660    1.7800   19.6690 C   0  0  0  0  0  0  0  0  0  0  0  0
    4.0580    2.3770   18.5090 C   0  0  0  0  0  0  0  0  0  0  0  0
    4.5370    1.9730   17.2550 C   0  0  0  0  0  0  0  0  0  0  0  0
    5.4310    0.9700   17.0930 N   0  0  0  0  0  0  0  0  0  0  0  0
    5.9290    0.4040   18.2100 C   0  0  0  0  0  0  0  0  0  0  0  0
    9.5620    0.8880   23.5460 C   0  0  0  0  0  0  0  0  0  0  0  0
   10.9070    1.0340   23.9150 C   0  0  0  0  0  0  0  0  0  0  0  0
  1  2  1  0
  2  3  1  0
  3  4  1  0
  4  5  1  0
  5  6  2  0
  5  7  1  0
  7  8  1  0
  8 23  2  0
  8  9  1  0
  9 10  2  0
 10 11  1  0
 11 12  1  0
 11 22  2  0
 12 13  1  0
 13 14  2  0
 13 15  1  0
 15 16  1  0
 16 17  2  0
 16 21  1  0
 17 18  1  0
 18 19  2  0
 19 20  1  0
 20 21  2  0
 22 23  1  0
M  END
