WPC0598_minimised.pdb
     RDKit          3D

 17 18  0  0  0  0  0  0  0  0999 V2000
    8.4460    0.2160   19.8390 O   0  0  0  0  0  0  0  0  0  0  0  0
    7.7260    0.0680   20.8070 C   0  0  0  0  0  0  0  0  0  0  0  0
    8.1980   -0.1350   22.0720 N   0  0  0  0  0  0  0  0  0  0  0  0
    9.5640   -0.0550   22.3960 C   0  0  0  0  0  0  0  0  0  0  0  0
   10.4620   -0.9820   21.8460 C   0  0  0  0  0  0  0  0  0  0  0  0
   11.8410   -0.8130   22.0260 C   0  0  0  0  0  0  0  0  0  0  0  0
   12.3120    0.2850   22.7600 C   0  0  0  0  0  0  0  0  0  0  0  0
   14.1820    0.5500   22.9430 Br  0  0  0  0  0  0  0  0  0  0  0  0
   11.4180    1.2000   23.3350 C   0  0  0  0  0  0  0  0  0  0  0  0
   10.0370    1.0280   23.1530 C   0  0  0  0  0  0  0  0  0  0  0  0
    6.3630    0.1380   20.7270 N   0  0  0  0  0  0  0  0  0  0  0  0
    5.6610    0.6410   19.6060 C   0  0  0  0  0  0  0  0  0  0  0  0
    4.6940    1.6320   19.8060 C   0  0  0  0  0  0  0  0  0  0  0  0
    4.1410    2.2390   18.6720 C   0  0  0  0  0  0  0  0  0  0  0  0
    4.5790    1.8540   17.3970 C   0  0  0  0  0  0  0  0  0  0  0  0
    5.4690    0.8560   17.1930 N   0  0  0  0  0  0  0  0  0  0  0  0
    6.0030    0.2750   18.2850 C   0  0  0  0  0  0  0  0  0  0  0  0
  1  2  2  0
  2  3  1  0
  2 11  1  0
  3  4  1  0
  4  5  2  0
  4 10  1  0
  5  6  1  0
  6  7  2  0
  7  8  1  0
  7  9  1  0
  9 10  2  0
 11 12  1  0
 12 13  2  0
 12 17  1  0
 13 14  1  0
 14 15  2  0
 15 16  1  0
 16 17  2  0
M  END
