WPC0527_minimised.pdb
     RDKit          3D

 22 23  0  0  0  0  0  0  0  0999 V2000
   12.6710    5.0860   22.3860 N   0  0  0  0  0  0  0  0  0  0  0  0
   13.6410    4.1770   22.6140 C   0  0  0  0  0  0  0  0  0  0  0  0
   14.6200    4.4490   23.2700 O   0  0  0  0  0  0  0  0  0  0  0  0
   13.3830    2.9690   22.0430 N   0  0  0  0  0  0  0  0  0  0  0  0
   14.2810    1.8060   22.1150 C   0  0  0  0  0  0  0  0  0  0  0  0
   13.7980    0.7360   23.1090 C   0  0  0  0  0  0  0  0  0  0  0  0
   12.3490    0.3520   22.8960 C   0  0  0  0  0  0  0  0  0  0  0  0
   12.0080   -0.6630   21.9860 C   0  0  0  0  0  0  0  0  0  0  0  0
   10.6590   -0.9560   21.7490 C   0  0  0  0  0  0  0  0  0  0  0  0
    9.6530   -0.2310   22.4030 C   0  0  0  0  0  0  0  0  0  0  0  0
    8.3100   -0.3770   22.0100 N   0  0  0  0  0  0  0  0  0  0  0  0
    7.8730   -0.0910   20.7470 C   0  0  0  0  0  0  0  0  0  0  0  0
    8.6140    0.1420   19.8110 O   0  0  0  0  0  0  0  0  0  0  0  0
    6.5110   -0.0350   20.6430 N   0  0  0  0  0  0  0  0  0  0  0  0
    5.8220    0.5240   19.5420 C   0  0  0  0  0  0  0  0  0  0  0  0
    4.8480    1.5020   19.7770 C   0  0  0  0  0  0  0  0  0  0  0  0
    4.3040    2.1580   18.6660 C   0  0  0  0  0  0  0  0  0  0  0  0
    4.7590    1.8370   17.3800 C   0  0  0  0  0  0  0  0  0  0  0  0
    5.6550    0.8540   17.1390 N   0  0  0  0  0  0  0  0  0  0  0  0
    6.1820    0.2250   18.2100 C   0  0  0  0  0  0  0  0  0  0  0  0
    9.9900    0.7470   23.3480 C   0  0  0  0  0  0  0  0  0  0  0  0
   11.3380    1.0350   23.5960 C   0  0  0  0  0  0  0  0  0  0  0  0
  1  2  1  0
  2  3  2  0
  2  4  1  0
  4  5  1  0
  5  6  1  0
  6  7  1  0
  7 22  2  0
  7  8  1  0
  8  9  2  0
  9 10  1  0
 10 11  1  0
 10 21  2  0
 11 12  1  0
 12 13  2  0
 12 14  1  0
 14 15  1  0
 15 16  2  0
 15 20  1  0
 16 17  1  0
 17 18  2  0
 18 19  1  0
 19 20  2  0
 21 22  1  0
M  END
