WPC0708_minimised.pdb
     RDKit          3D

 22 23  0  0  0  0  0  0  0  0999 V2000
   13.4470    5.4050   22.1580 C   0  0  0  0  0  0  0  0  0  0  0  0
   13.9130    4.0530   22.2130 O   0  0  0  0  0  0  0  0  0  0  0  0
   13.2570    3.2100   23.0430 C   0  0  0  0  0  0  0  0  0  0  0  0
   12.4140    3.5270   23.8610 O   0  0  0  0  0  0  0  0  0  0  0  0
   13.8520    1.9870   22.9440 N   0  0  0  0  0  0  0  0  0  0  0  0
   13.4490    0.7810   23.6650 C   0  0  0  0  0  0  0  0  0  0  0  0
   12.0570    0.3190   23.2950 C   0  0  0  0  0  0  0  0  0  0  0  0
   11.8630   -0.5610   22.2180 C   0  0  0  0  0  0  0  0  0  0  0  0
   10.5610   -0.9050   21.8290 C   0  0  0  0  0  0  0  0  0  0  0  0
    9.4570   -0.3640   22.5050 C   0  0  0  0  0  0  0  0  0  0  0  0
    8.1530   -0.5370   22.0030 N   0  0  0  0  0  0  0  0  0  0  0  0
    7.7800   -0.2120   20.7280 C   0  0  0  0  0  0  0  0  0  0  0  0
    8.5530    0.0210   19.8190 O   0  0  0  0  0  0  0  0  0  0  0  0
    6.4240   -0.1160   20.5870 N   0  0  0  0  0  0  0  0  0  0  0  0
    5.7710    0.4890   19.4890 C   0  0  0  0  0  0  0  0  0  0  0  0
    4.8030    1.4710   19.7350 C   0  0  0  0  0  0  0  0  0  0  0  0
    4.2720    2.1510   18.6330 C   0  0  0  0  0  0  0  0  0  0  0  0
    4.7330    1.8490   17.3440 C   0  0  0  0  0  0  0  0  0  0  0  0
    5.6310    0.8680   17.0940 N   0  0  0  0  0  0  0  0  0  0  0  0
    6.1460    0.2180   18.1560 C   0  0  0  0  0  0  0  0  0  0  0  0
    9.6500    0.4600   23.6200 C   0  0  0  0  0  0  0  0  0  0  0  0
   10.9500    0.7980   24.0180 C   0  0  0  0  0  0  0  0  0  0  0  0
  1  2  1  0
  2  3  1  0
  3  4  2  0
  3  5  1  0
  5  6  1  0
  6  7  1  0
  7 22  2  0
  7  8  1  0
  8  9  2  0
  9 10  1  0
 10 11  1  0
 10 21  2  0
 11 12  1  0
 12 13  2  0
 12 14  1  0
 14 15  1  0
 15 16  2  0
 15 20  1  0
 16 17  1  0
 17 18  2  0
 18 19  1  0
 19 20  2  0
 21 22  1  0
M  END
