WPC0448_minimised.pdb
     RDKit          3D

 19 20  0  0  0  0  0  0  0  0999 V2000
   12.4640    4.0820   23.1580 C   0  0  0  0  0  0  0  0  0  0  0  0
   13.6830    3.2950   22.6390 C   0  0  0  0  0  0  0  0  0  0  0  0
   13.8030    1.5640   23.2890 S   0  0  0  0  0  0  0  0  0  0  0  0
   12.2060    0.8390   23.0400 C   0  0  0  0  0  0  0  0  0  0  0  0
   12.0270   -0.0740   21.9930 C   0  0  0  0  0  0  0  0  0  0  0  0
   10.7460   -0.5740   21.7220 C   0  0  0  0  0  0  0  0  0  0  0  0
    9.6460   -0.1450   22.4820 C   0  0  0  0  0  0  0  0  0  0  0  0
    8.3300   -0.4280   22.0570 N   0  0  0  0  0  0  0  0  0  0  0  0
    7.8720   -0.1540   20.7950 C   0  0  0  0  0  0  0  0  0  0  0  0
    8.5920    0.1130   19.8520 O   0  0  0  0  0  0  0  0  0  0  0  0
    6.5080   -0.1410   20.6960 N   0  0  0  0  0  0  0  0  0  0  0  0
    5.8110    0.4290   19.6030 C   0  0  0  0  0  0  0  0  0  0  0  0
    4.8630    1.4280   19.8510 C   0  0  0  0  0  0  0  0  0  0  0  0
    4.3170    2.0950   18.7460 C   0  0  0  0  0  0  0  0  0  0  0  0
    4.7450    1.7610   17.4530 C   0  0  0  0  0  0  0  0  0  0  0  0
    5.6210    0.7610   17.2030 N   0  0  0  0  0  0  0  0  0  0  0  0
    6.1500    0.1240   18.2670 C   0  0  0  0  0  0  0  0  0  0  0  0
    9.8420    0.6970   23.5860 C   0  0  0  0  0  0  0  0  0  0  0  0
   11.1270    1.1790   23.8730 C   0  0  0  0  0  0  0  0  0  0  0  0
  1  2  1  0
  2  3  1  0
  3  4  1  0
  4 19  2  0
  4  5  1  0
  5  6  2  0
  6  7  1  0
  7  8  1  0
  7 18  2  0
  8  9  1  0
  9 10  2  0
  9 11  1  0
 11 12  1  0
 12 13  2  0
 12 17  1  0
 13 14  1  0
 14 15  2  0
 15 16  1  0
 16 17  2  0
 18 19  1  0
M  END
