WPC0002_minimised.pdb
     RDKit          3D

 24 26  0  0  0  0  0  0  0  0999 V2000
    9.1850    0.7850   20.5990 O   0  0  0  0  0  0  0  0  0  0  0  0
    8.9400   -0.2660   21.1520 C   0  0  0  0  0  0  0  0  0  0  0  0
    9.7980   -0.8670   22.0330 N   0  0  0  0  0  0  0  0  0  0  0  0
   11.1090   -0.4190   22.2950 C   0  0  0  0  0  0  0  0  0  0  0  0
   12.1830   -1.2770   22.0280 C   0  0  0  0  0  0  0  0  0  0  0  0
   13.5030   -0.8270   22.1790 C   0  0  0  0  0  0  0  0  0  0  0  0
   13.7500    0.4770   22.6380 C   0  0  0  0  0  0  0  0  0  0  0  0
   12.6740    1.3320   22.9290 C   0  0  0  0  0  0  0  0  0  0  0  0
   11.3550    0.8870   22.7480 C   0  0  0  0  0  0  0  0  0  0  0  0
    7.7790   -0.9520   20.9090 N   0  0  0  0  0  0  0  0  0  0  0  0
    6.7510   -0.4550   20.0540 C   0  0  0  0  0  0  0  0  0  0  0  0
    6.9970   -0.3060   18.6740 C   0  0  0  0  0  0  0  0  0  0  0  0
    6.1230    0.2480   17.8090 N   0  0  0  0  0  0  0  0  0  0  0  0
    4.9910    0.7750   18.3220 C   0  0  0  0  0  0  0  0  0  0  0  0
    4.6530    0.6680   19.6790 C   0  0  0  0  0  0  0  0  0  0  0  0
    5.5310    0.0310   20.5640 C   0  0  0  0  0  0  0  0  0  0  0  0
    5.2080   -0.0430   21.9040 O   0  0  0  0  0  0  0  0  0  0  0  0
    6.0650    0.4190   22.8760 C   0  0  0  0  0  0  0  0  0  0  0  0
    6.7760    1.6180   22.6850 C   0  0  0  0  0  0  0  0  0  0  0  0
    7.7760    1.9920   23.5960 C   0  0  0  0  0  0  0  0  0  0  0  0
    8.0490    1.1770   24.7090 C   0  0  0  0  0  0  0  0  0  0  0  0
    7.3080    0.0050   24.9210 C   0  0  0  0  0  0  0  0  0  0  0  0
    7.6890   -1.0980   26.4310 Br  0  0  0  0  0  0  0  0  0  0  0  0
    6.3130   -0.3750   24.0060 C   0  0  0  0  0  0  0  0  0  0  0  0
  1  2  2  0
  2  3  1  0
  2 10  1  0
  3  4  1  0
  4  5  2  0
  4  9  1  0
  5  6  1  0
  6  7  2  0
  7  8  1  0
  8  9  2  0
 10 11  1  0
 11 12  2  0
 11 16  1  0
 12 13  1  0
 13 14  2  0
 14 15  1  0
 15 16  2  0
 16 17  1  0
 17 18  1  0
 18 24  1  0
 18 19  2  0
 19 20  1  0
 20 21  2  0
 21 22  1  0
 22 23  1  0
 22 24  2  0
M  END
