WPC0663_minimised.pdb
     RDKit          3D

 22 23  0  0  0  0  0  0  0  0999 V2000
   13.7650    4.8650   23.2370 N   0  0  0  0  0  0  0  0  0  0  0  0
   12.5150    4.5270   23.6510 C   0  0  0  0  0  0  0  0  0  0  0  0
   11.5070    5.6440   24.3370 S   0  0  0  0  0  0  0  0  0  0  0  0
   12.2220    3.1870   23.6350 N   0  0  0  0  0  0  0  0  0  0  0  0
   13.0770    2.1030   23.1140 C   0  0  0  0  0  0  0  0  0  0  0  0
   12.8840    0.7460   23.8110 C   0  0  0  0  0  0  0  0  0  0  0  0
   11.5160    0.1870   23.4990 C   0  0  0  0  0  0  0  0  0  0  0  0
   11.3500   -0.6130   22.3580 C   0  0  0  0  0  0  0  0  0  0  0  0
   10.0620   -0.9470   21.9280 C   0  0  0  0  0  0  0  0  0  0  0  0
    8.9430   -0.4570   22.6170 C   0  0  0  0  0  0  0  0  0  0  0  0
    7.6660   -0.5300   22.0300 N   0  0  0  0  0  0  0  0  0  0  0  0
    7.3990   -0.1420   20.7440 C   0  0  0  0  0  0  0  0  0  0  0  0
    8.2400    0.0720   19.8890 O   0  0  0  0  0  0  0  0  0  0  0  0
    6.0630    0.0280   20.5240 N   0  0  0  0  0  0  0  0  0  0  0  0
    5.5020    0.6550   19.3890 C   0  0  0  0  0  0  0  0  0  0  0  0
    4.5340    1.6490   19.5720 C   0  0  0  0  0  0  0  0  0  0  0  0
    4.0920    2.3410   18.4380 C   0  0  0  0  0  0  0  0  0  0  0  0
    4.6380    2.0360   17.1840 C   0  0  0  0  0  0  0  0  0  0  0  0
    5.5400    1.0460   16.9920 N   0  0  0  0  0  0  0  0  0  0  0  0
    5.9670    0.3830   18.0840 C   0  0  0  0  0  0  0  0  0  0  0  0
    9.1090    0.2550   23.8150 C   0  0  0  0  0  0  0  0  0  0  0  0
   10.4000    0.5680   24.2660 C   0  0  0  0  0  0  0  0  0  0  0  0
  1  2  1  0
  2  3  2  0
  2  4  1  0
  4  5  1  0
  5  6  1  0
  6  7  1  0
  7 22  2  0
  7  8  1  0
  8  9  2  0
  9 10  1  0
 10 11  1  0
 10 21  2  0
 11 12  1  0
 12 13  2  0
 12 14  1  0
 14 15  1  0
 15 16  2  0
 15 20  1  0
 16 17  1  0
 17 18  2  0
 18 19  1  0
 19 20  2  0
 21 22  1  0
M  END
