WPC0401_minimised.pdb
     RDKit          3D

 21 22  0  0  0  0  0  0  0  0999 V2000
    8.5030    0.0880   19.8900 O   0  0  0  0  0  0  0  0  0  0  0  0
    7.7360   -0.2400   20.7760 C   0  0  0  0  0  0  0  0  0  0  0  0
    8.1160   -0.6360   22.0310 N   0  0  0  0  0  0  0  0  0  0  0  0
    9.4050   -0.4350   22.5600 C   0  0  0  0  0  0  0  0  0  0  0  0
   10.5440   -0.7600   21.8070 C   0  0  0  0  0  0  0  0  0  0  0  0
   11.8070   -0.3120   22.2100 C   0  0  0  0  0  0  0  0  0  0  0  0
   11.9300    0.4460   23.3830 C   0  0  0  0  0  0  0  0  0  0  0  0
   13.2580    1.0700   23.7410 C   0  0  0  0  0  0  0  0  0  0  0  0
   13.4340    2.7950   23.0910 S   0  0  0  0  0  0  0  0  0  0  0  0
   11.7730    3.5540   23.3390 C   0  0  0  0  0  0  0  0  0  0  0  0
   11.8350    5.0500   22.9980 C   0  0  0  0  0  0  0  0  0  0  0  0
   10.5160    5.5750   22.8740 O   0  0  0  0  0  0  0  0  0  0  0  0
   10.8090    0.6570   24.2070 C   0  0  0  0  0  0  0  0  0  0  0  0
    9.5420    0.2280   23.7870 C   0  0  0  0  0  0  0  0  0  0  0  0
    6.3800   -0.1900   20.6240 N   0  0  0  0  0  0  0  0  0  0  0  0
    5.7260    0.4230   19.5320 C   0  0  0  0  0  0  0  0  0  0  0  0
    4.7690    1.4140   19.7780 C   0  0  0  0  0  0  0  0  0  0  0  0
    4.2440    2.0980   18.6750 C   0  0  0  0  0  0  0  0  0  0  0  0
    4.7010    1.7880   17.3850 C   0  0  0  0  0  0  0  0  0  0  0  0
    5.5930    0.8040   17.1370 N   0  0  0  0  0  0  0  0  0  0  0  0
    6.1020    0.1500   18.1990 C   0  0  0  0  0  0  0  0  0  0  0  0
  1  2  2  0
  2  3  1  0
  2 15  1  0
  3  4  1  0
  4  5  2  0
  4 14  1  0
  5  6  1  0
  6  7  2  0
  7  8  1  0
  7 13  1  0
  8  9  1  0
  9 10  1  0
 10 11  1  0
 11 12  1  0
 13 14  2  0
 15 16  1  0
 16 17  2  0
 16 21  1  0
 17 18  1  0
 18 19  2  0
 19 20  1  0
 20 21  2  0
M  END
