WPC0229_minimised.pdb
     RDKit          3D

 21 22  0  0  0  0  0  0  0  0999 V2000
    9.2350    0.9420   20.6780 O   0  0  0  0  0  0  0  0  0  0  0  0
    8.8760   -0.0970   21.1880 C   0  0  0  0  0  0  0  0  0  0  0  0
    9.6710   -0.8210   22.0340 N   0  0  0  0  0  0  0  0  0  0  0  0
   11.0110   -0.4760   22.3220 C   0  0  0  0  0  0  0  0  0  0  0  0
   12.0380   -1.3660   21.9820 C   0  0  0  0  0  0  0  0  0  0  0  0
   13.3820   -0.9820   22.1160 C   0  0  0  0  0  0  0  0  0  0  0  0
   13.6990    0.2870   22.6280 C   0  0  0  0  0  0  0  0  0  0  0  0
   12.6720    1.1700   22.9970 C   0  0  0  0  0  0  0  0  0  0  0  0
   11.3300    0.7910   22.8390 C   0  0  0  0  0  0  0  0  0  0  0  0
    7.6380   -0.6230   20.9320 N   0  0  0  0  0  0  0  0  0  0  0  0
    6.7090    0.0110   20.0610 C   0  0  0  0  0  0  0  0  0  0  0  0
    6.7420   -0.2590   18.6780 C   0  0  0  0  0  0  0  0  0  0  0  0
    5.9700    0.3670   17.7670 N   0  0  0  0  0  0  0  0  0  0  0  0
    5.1620    1.3510   18.2180 C   0  0  0  0  0  0  0  0  0  0  0  0
    5.0670    1.6980   19.5770 C   0  0  0  0  0  0  0  0  0  0  0  0
    5.8520    1.0260   20.5310 C   0  0  0  0  0  0  0  0  0  0  0  0
    5.8160    1.4440   21.9990 C   0  0  0  0  0  0  0  0  0  0  0  0
    6.7920    2.6000   22.3250 C   0  0  0  0  0  0  0  0  0  0  0  0
    6.2620    3.9810   21.9230 N   0  0  0  0  0  0  0  0  0  0  0  0
    5.1440    4.2520   22.3480 O   0  0  0  0  0  0  0  0  0  0  0  0
    7.1440    4.8180   21.7750 O   0  0  0  0  0  0  0  0  0  0  0  0
  1  2  2  0
  2  3  1  0
  2 10  1  0
  3  4  1  0
  4  5  2  0
  4  9  1  0
  5  6  1  0
  6  7  2  0
  7  8  1  0
  8  9  2  0
 10 11  1  0
 11 12  2  0
 11 16  1  0
 12 13  1  0
 13 14  2  0
 14 15  1  0
 15 16  2  0
 16 17  1  0
 17 18  1  0
 18 19  1  0
 19 21  1  0
 19 20  2  0
M  CHG  2  19   1  21  -1
M  END
