WPC0872_minimised.pdb
     RDKit          3D

 23 25  0  0  0  0  0  0  0  0999 V2000
    8.4790   -0.3260   19.8370 O   0  0  0  0  0  0  0  0  0  0  0  0
    7.7150   -0.6160   20.7380 C   0  0  0  0  0  0  0  0  0  0  0  0
    8.0970   -1.0240   21.9900 N   0  0  0  0  0  0  0  0  0  0  0  0
    9.3530   -0.7090   22.5470 C   0  0  0  0  0  0  0  0  0  0  0  0
   10.5330   -0.8870   21.8080 C   0  0  0  0  0  0  0  0  0  0  0  0
   11.7100   -0.2320   22.1910 C   0  0  0  0  0  0  0  0  0  0  0  0
   11.7100    0.5740   23.3390 C   0  0  0  0  0  0  0  0  0  0  0  0
   12.8840    1.4910   23.6270 C   0  0  0  0  0  0  0  0  0  0  0  0
   12.5450    2.9580   23.4710 C   0  0  0  0  0  0  0  0  0  0  0  0
   13.4370    3.9290   23.0770 N   0  0  0  0  0  0  0  0  0  0  0  0
   12.7570    5.0440   23.0660 N   0  0  0  0  0  0  0  0  0  0  0  0
   11.4370    4.8410   23.4450 C   0  0  0  0  0  0  0  0  0  0  0  0
   10.2040    5.9620   23.5730 S   0  0  0  0  0  0  0  0  0  0  0  0
   11.3810    3.5020   23.7360 N   0  0  0  0  0  0  0  0  0  0  0  0
   10.5750    0.6090   24.1720 C   0  0  0  0  0  0  0  0  0  0  0  0
    9.3900   -0.0190   23.7660 C   0  0  0  0  0  0  0  0  0  0  0  0
    6.3610   -0.4790   20.6120 N   0  0  0  0  0  0  0  0  0  0  0  0
    5.7360    0.2250   19.5550 C   0  0  0  0  0  0  0  0  0  0  0  0
    4.8450    1.2630   19.8560 C   0  0  0  0  0  0  0  0  0  0  0  0
    4.3510    2.0280   18.7910 C   0  0  0  0  0  0  0  0  0  0  0  0
    4.7700    1.7460   17.4820 C   0  0  0  0  0  0  0  0  0  0  0  0
    5.6040    0.7250   17.1820 N   0  0  0  0  0  0  0  0  0  0  0  0
    6.0840   -0.0050   18.2070 C   0  0  0  0  0  0  0  0  0  0  0  0
  1  2  2  0
  2  3  1  0
  2 17  1  0
  3  4  1  0
  4  5  2  0
  4 16  1  0
  5  6  1  0
  6  7  2  0
  7  8  1  0
  7 15  1  0
  8  9  1  0
  9 10  1  0
  9 14  2  0
 10 11  2  0
 11 12  1  0
 12 13  2  0
 12 14  1  0
 15 16  2  0
 17 18  1  0
 18 19  2  0
 18 23  1  0
 19 20  1  0
 20 21  2  0
 21 22  1  0
 22 23  2  0
M  END
