WPC0455_minimised.pdb
     RDKit          3D

 21 22  0  0  0  0  0  0  0  0999 V2000
    8.4550   -0.0390   19.8230 O   0  0  0  0  0  0  0  0  0  0  0  0
    7.6840   -0.3600   20.7070 C   0  0  0  0  0  0  0  0  0  0  0  0
    8.0550   -0.7480   21.9670 N   0  0  0  0  0  0  0  0  0  0  0  0
    9.3160   -0.4750   22.5310 C   0  0  0  0  0  0  0  0  0  0  0  0
   10.4940   -0.6870   21.7980 C   0  0  0  0  0  0  0  0  0  0  0  0
   11.7090   -0.1570   22.2470 C   0  0  0  0  0  0  0  0  0  0  0  0
   11.7470    0.5700   23.4460 C   0  0  0  0  0  0  0  0  0  0  0  0
   13.0220    1.2640   23.8620 C   0  0  0  0  0  0  0  0  0  0  0  0
   13.3630    2.4550   23.0670 N   0  0  0  0  0  0  0  0  0  0  0  0
   12.7790    3.7070   23.0790 C   0  0  0  0  0  0  0  0  0  0  0  0
   13.4860    4.9760   22.2630 S   0  0  0  0  0  0  0  0  0  0  0  0
   11.3340    3.9380   24.1160 S   0  0  0  0  0  0  0  0  0  0  0  0
   10.5960    0.6520   24.2540 C   0  0  0  0  0  0  0  0  0  0  0  0
    9.3760    0.1470   23.7850 C   0  0  0  0  0  0  0  0  0  0  0  0
    6.3280   -0.2990   20.5550 N   0  0  0  0  0  0  0  0  0  0  0  0
    5.6850    0.3570   19.4800 C   0  0  0  0  0  0  0  0  0  0  0  0
    4.7430    1.3560   19.7560 C   0  0  0  0  0  0  0  0  0  0  0  0
    4.2300    2.0810   18.6730 C   0  0  0  0  0  0  0  0  0  0  0  0
    4.6830    1.8020   17.3750 C   0  0  0  0  0  0  0  0  0  0  0  0
    5.5640    0.8150   17.0990 N   0  0  0  0  0  0  0  0  0  0  0  0
    6.0630    0.1220   18.1420 C   0  0  0  0  0  0  0  0  0  0  0  0
  1  2  2  0
  2  3  1  0
  2 15  1  0
  3  4  1  0
  4  5  2  0
  4 14  1  0
  5  6  1  0
  6  7  2  0
  7  8  1  0
  7 13  1  0
  8  9  1  0
  9 10  1  0
 10 11  2  0
 10 12  1  0
 13 14  2  0
 15 16  1  0
 16 17  2  0
 16 21  1  0
 17 18  1  0
 18 19  2  0
 19 20  1  0
 20 21  2  0
M  END
