WPC0855_minimised.pdb
     RDKit          3D

 24 26  0  0  0  0  0  0  0  0999 V2000
   11.1830    2.9960   21.5180 C   0  0  0  0  0  0  0  0  0  0  0  0
   11.9890    3.7680   22.4640 N   0  0  0  0  0  0  0  0  0  0  0  0
   11.6080    4.9940   22.9020 N   0  0  0  0  0  0  0  0  0  0  0  0
   12.5970    5.4370   23.6320 N   0  0  0  0  0  0  0  0  0  0  0  0
   13.6500    4.5600   23.6680 N   0  0  0  0  0  0  0  0  0  0  0  0
   13.2070    3.5070   23.0300 C   0  0  0  0  0  0  0  0  0  0  0  0
   14.2410    2.1690   22.5430 S   0  0  0  0  0  0  0  0  0  0  0  0
   13.7130    0.7390   23.5800 C   0  0  0  0  0  0  0  0  0  0  0  0
   12.2720    0.3510   23.3390 C   0  0  0  0  0  0  0  0  0  0  0  0
   11.9550   -0.5610   22.3180 C   0  0  0  0  0  0  0  0  0  0  0  0
   10.6130   -0.8180   22.0080 C   0  0  0  0  0  0  0  0  0  0  0  0
    9.5910   -0.1720   22.7180 C   0  0  0  0  0  0  0  0  0  0  0  0
    8.2600   -0.2700   22.2740 N   0  0  0  0  0  0  0  0  0  0  0  0
    7.8510    0.0870   21.0190 C   0  0  0  0  0  0  0  0  0  0  0  0
    8.6080    0.4360   20.1320 O   0  0  0  0  0  0  0  0  0  0  0  0
    6.4960    0.0410   20.8600 N   0  0  0  0  0  0  0  0  0  0  0  0
    5.8040    0.5150   19.7210 C   0  0  0  0  0  0  0  0  0  0  0  0
    4.7870    1.4600   19.8950 C   0  0  0  0  0  0  0  0  0  0  0  0
    4.2080    2.0070   18.7450 C   0  0  0  0  0  0  0  0  0  0  0  0
    4.6590    1.5990   17.4810 C   0  0  0  0  0  0  0  0  0  0  0  0
    5.6050    0.6490   17.3030 N   0  0  0  0  0  0  0  0  0  0  0  0
    6.1790    0.1400   18.4120 C   0  0  0  0  0  0  0  0  0  0  0  0
    9.9020    0.6700   23.7940 C   0  0  0  0  0  0  0  0  0  0  0  0
   11.2430    0.9300   24.1070 C   0  0  0  0  0  0  0  0  0  0  0  0
  1  2  1  0
  2  3  1  0
  2  6  1  0
  3  4  2  0
  4  5  1  0
  5  6  2  0
  6  7  1  0
  7  8  1  0
  8  9  1  0
  9 24  1  0
  9 10  2  0
 10 11  1  0
 11 12  2  0
 12 13  1  0
 12 23  1  0
 13 14  1  0
 14 15  2  0
 14 16  1  0
 16 17  1  0
 17 18  2  0
 17 22  1  0
 18 19  1  0
 19 20  2  0
 20 21  1  0
 21 22  2  0
 23 24  2  0
M  END
