WPC0322_minimised.pdb
     RDKit          3D

 19 20  0  0  0  0  0  0  0  0999 V2000
    9.7270   -3.6480   23.7300 C   0  0  0  0  0  0  0  0  0  0  0  0
    9.2370   -2.5590   23.6210 C   0  0  0  0  0  0  0  0  0  0  0  0
    8.6870   -1.1980   23.5190 C   0  0  0  0  0  0  0  0  0  0  0  0
    9.2800   -0.4240   22.4100 N   0  0  0  0  0  0  0  0  0  0  0  0
    8.5730    0.0380   21.3080 C   0  0  0  0  0  0  0  0  0  0  0  0
    9.1240    0.6280   20.4020 O   0  0  0  0  0  0  0  0  0  0  0  0
    7.2140   -0.1680   21.2350 N   0  0  0  0  0  0  0  0  0  0  0  0
    6.4150    0.2980   20.1540 C   0  0  0  0  0  0  0  0  0  0  0  0
    5.4270    1.2650   20.3830 C   0  0  0  0  0  0  0  0  0  0  0  0
    4.7770    1.8150   19.2680 C   0  0  0  0  0  0  0  0  0  0  0  0
    5.1240    1.3850   17.9770 C   0  0  0  0  0  0  0  0  0  0  0  0
    6.0410    0.4200   17.7460 N   0  0  0  0  0  0  0  0  0  0  0  0
    6.6880   -0.0830   18.8200 C   0  0  0  0  0  0  0  0  0  0  0  0
   10.6680   -0.1350   22.5050 C   0  0  0  0  0  0  0  0  0  0  0  0
   11.6090   -0.9910   21.9100 C   0  0  0  0  0  0  0  0  0  0  0  0
   12.9770   -0.6750   21.9410 C   0  0  0  0  0  0  0  0  0  0  0  0
   13.4060    0.5040   22.5700 C   0  0  0  0  0  0  0  0  0  0  0  0
   12.4640    1.3710   23.1470 C   0  0  0  0  0  0  0  0  0  0  0  0
   11.0980    1.0500   23.1210 C   0  0  0  0  0  0  0  0  0  0  0  0
  1  2  3  0
  2  3  1  0
  3  4  1  0
  4  5  1  0
  4 14  1  0
  5  7  1  0
  5  6  2  0
  7  8  1  0
  8  9  2  0
  8 13  1  0
  9 10  1  0
 10 11  2  0
 11 12  1  0
 12 13  2  0
 14 15  2  0
 14 19  1  0
 15 16  1  0
 16 17  2  0
 17 18  1  0
 18 19  2  0
M  END
