WPC0185_minimised.pdb
     RDKit          3D

 18 19  0  0  0  0  0  0  0  0999 V2000
    4.0220    4.0320   21.5350 C   0  0  0  0  0  0  0  0  0  0  0  0
    4.6770    2.3290   21.8070 S   0  0  0  0  0  0  0  0  0  0  0  0
    5.0430    1.6820   20.1740 C   0  0  0  0  0  0  0  0  0  0  0  0
    4.4460    2.2160   19.0220 C   0  0  0  0  0  0  0  0  0  0  0  0
    4.8140    1.7330   17.7580 C   0  0  0  0  0  0  0  0  0  0  0  0
    5.6800    0.7120   17.5790 N   0  0  0  0  0  0  0  0  0  0  0  0
    6.2620    0.2070   18.6850 C   0  0  0  0  0  0  0  0  0  0  0  0
    5.9900    0.6610   19.9950 C   0  0  0  0  0  0  0  0  0  0  0  0
    6.7600    0.1990   21.0970 N   0  0  0  0  0  0  0  0  0  0  0  0
    8.1290    0.1960   21.1040 C   0  0  0  0  0  0  0  0  0  0  0  0
    8.7630    0.4180   20.0940 O   0  0  0  0  0  0  0  0  0  0  0  0
    8.7190   -0.0410   22.3150 N   0  0  0  0  0  0  0  0  0  0  0  0
   10.1110    0.0710   22.5310 C   0  0  0  0  0  0  0  0  0  0  0  0
   10.9970   -0.8220   21.9080 C   0  0  0  0  0  0  0  0  0  0  0  0
   12.3850   -0.6320   22.0140 C   0  0  0  0  0  0  0  0  0  0  0  0
   12.8880    0.4560   22.7470 C   0  0  0  0  0  0  0  0  0  0  0  0
   12.0010    1.3460   23.3740 C   0  0  0  0  0  0  0  0  0  0  0  0
   10.6140    1.1510   23.2720 C   0  0  0  0  0  0  0  0  0  0  0  0
  1  2  1  0
  2  3  1  0
  3  4  2  0
  3  8  1  0
  4  5  1  0
  5  6  2  0
  6  7  1  0
  7  8  2  0
  8  9  1  0
  9 10  1  0
 10 11  2  0
 10 12  1  0
 12 13  1  0
 13 14  2  0
 13 18  1  0
 14 15  1  0
 15 16  2  0
 16 17  1  0
 17 18  2  0
M  END
