WPC0669_minimised.pdb
     RDKit          3D

 24 26  0  0  0  0  0  0  0  0999 V2000
    8.7000    0.1350   19.9710 O   0  0  0  0  0  0  0  0  0  0  0  0
    7.9810   -0.2760   20.8610 C   0  0  0  0  0  0  0  0  0  0  0  0
    8.4210   -0.7300   22.0770 N   0  0  0  0  0  0  0  0  0  0  0  0
    9.7260   -0.5630   22.5900 C   0  0  0  0  0  0  0  0  0  0  0  0
   10.8600   -0.7080   21.7730 C   0  0  0  0  0  0  0  0  0  0  0  0
   12.1280   -0.3380   22.2420 C   0  0  0  0  0  0  0  0  0  0  0  0
   12.2690    0.1630   23.5440 C   0  0  0  0  0  0  0  0  0  0  0  0
   13.6160    0.6610   24.0320 C   0  0  0  0  0  0  0  0  0  0  0  0
   14.0860    1.8990   23.3920 N   0  0  0  0  0  0  0  0  0  0  0  0
   13.1680    3.0480   23.2820 C   0  0  0  0  0  0  0  0  0  0  0  0
   13.9850    4.2510   22.7650 C   0  0  0  0  0  0  0  0  0  0  0  0
   13.1480    5.5390   22.6890 C   0  0  0  0  0  0  0  0  0  0  0  0
   12.4370    5.8640   24.0270 C   0  0  0  0  0  0  0  0  0  0  0  0
   11.6010    4.6700   24.5040 C   0  0  0  0  0  0  0  0  0  0  0  0
   12.4950    3.4260   24.6160 C   0  0  0  0  0  0  0  0  0  0  0  0
   11.1530    0.1880   24.4040 C   0  0  0  0  0  0  0  0  0  0  0  0
    9.8820   -0.1580   23.9220 C   0  0  0  0  0  0  0  0  0  0  0  0
    6.6190   -0.2810   20.7430 N   0  0  0  0  0  0  0  0  0  0  0  0
    5.9180    0.3180   19.6690 C   0  0  0  0  0  0  0  0  0  0  0  0
    4.9670    1.3100   19.9380 C   0  0  0  0  0  0  0  0  0  0  0  0
    4.3960    1.9790   18.8470 C   0  0  0  0  0  0  0  0  0  0  0  0
    4.7990    1.6490   17.5440 C   0  0  0  0  0  0  0  0  0  0  0  0
    5.6840    0.6640   17.2740 N   0  0  0  0  0  0  0  0  0  0  0  0
    6.2430    0.0310   18.3250 C   0  0  0  0  0  0  0  0  0  0  0  0
  1  2  2  0
  2  3  1  0
  2 18  1  0
  3  4  1  0
  4  5  2  0
  4 17  1  0
  5  6  1  0
  6  7  2  0
  7  8  1  0
  7 16  1  0
  8  9  1  0
  9 10  1  0
 10 11  1  0
 10 15  1  0
 11 12  1  0
 12 13  1  0
 13 14  1  0
 14 15  1  0
 16 17  2  0
 18 19  1  0
 19 20  2  0
 19 24  1  0
 20 21  1  0
 21 22  2  0
 22 23  1  0
 23 24  2  0
M  END
