WPC0804_minimised.pdb
     RDKit          3D

 22 23  0  0  0  0  0  0  0  0999 V2000
   13.0280    5.4810   24.3220 N   0  0  0  0  0  0  0  0  0  0  0  0
   12.9420    5.3910   22.8630 C   0  0  0  0  0  0  0  0  0  0  0  0
   13.8040    4.2640   22.2920 C   0  0  0  0  0  0  0  0  0  0  0  0
   13.2590    2.8630   22.6210 C   0  0  0  0  0  0  0  0  0  0  0  0
   14.2920    1.7520   22.3340 C   0  0  0  0  0  0  0  0  0  0  0  0
   13.9970    0.2970   23.4010 S   0  0  0  0  0  0  0  0  0  0  0  0
   12.2780   -0.0390   23.1200 C   0  0  0  0  0  0  0  0  0  0  0  0
   11.9050   -0.8830   22.0660 C   0  0  0  0  0  0  0  0  0  0  0  0
   10.5470   -1.0690   21.7790 C   0  0  0  0  0  0  0  0  0  0  0  0
    9.5670   -0.3930   22.5220 C   0  0  0  0  0  0  0  0  0  0  0  0
    8.2260   -0.4110   22.0900 N   0  0  0  0  0  0  0  0  0  0  0  0
    7.8290   -0.0610   20.8270 C   0  0  0  0  0  0  0  0  0  0  0  0
    8.5950    0.1810   19.9120 O   0  0  0  0  0  0  0  0  0  0  0  0
    6.4720    0.0260   20.6940 N   0  0  0  0  0  0  0  0  0  0  0  0
    5.8060    0.5790   19.5750 C   0  0  0  0  0  0  0  0  0  0  0  0
    4.8180    1.5480   19.7870 C   0  0  0  0  0  0  0  0  0  0  0  0
    4.2810    2.1850   18.6620 C   0  0  0  0  0  0  0  0  0  0  0  0
    4.7540    1.8520   17.3850 C   0  0  0  0  0  0  0  0  0  0  0  0
    5.6650    0.8760   17.1660 N   0  0  0  0  0  0  0  0  0  0  0  0
    6.1870    0.2680   18.2510 C   0  0  0  0  0  0  0  0  0  0  0  0
    9.9370    0.3980   23.6180 C   0  0  0  0  0  0  0  0  0  0  0  0
   11.2960    0.5670   23.9210 C   0  0  0  0  0  0  0  0  0  0  0  0
  1  2  1  0
  2  3  1  0
  3  4  1  0
  4  5  1  0
  5  6  1  0
  6  7  1  0
  7 22  2  0
  7  8  1  0
  8  9  2  0
  9 10  1  0
 10 11  1  0
 10 21  2  0
 11 12  1  0
 12 13  2  0
 12 14  1  0
 14 15  1  0
 15 16  2  0
 15 20  1  0
 16 17  1  0
 17 18  2  0
 18 19  1  0
 19 20  2  0
 21 22  1  0
M  END
