WPC0430_minimised.pdb
     RDKit          3D

 21 22  0  0  0  0  0  0  0  0999 V2000
   11.3080    5.0110   22.8780 N   0  0  0  0  0  0  0  0  0  0  0  0
   12.5700    4.7190   23.2920 C   0  0  0  0  0  0  0  0  0  0  0  0
   12.9400    5.1170   24.3740 O   0  0  0  0  0  0  0  0  0  0  0  0
   13.4420    3.9110   22.3430 C   0  0  0  0  0  0  0  0  0  0  0  0
   13.8360    2.2140   22.9780 S   0  0  0  0  0  0  0  0  0  0  0  0
   12.2920    1.3440   22.9280 C   0  0  0  0  0  0  0  0  0  0  0  0
   12.1430    0.2860   22.0220 C   0  0  0  0  0  0  0  0  0  0  0  0
   10.8830   -0.3010   21.8390 C   0  0  0  0  0  0  0  0  0  0  0  0
    9.7760    0.1730   22.5630 C   0  0  0  0  0  0  0  0  0  0  0  0
    8.4690   -0.2050   22.1860 N   0  0  0  0  0  0  0  0  0  0  0  0
    7.9810   -0.0140   20.9200 C   0  0  0  0  0  0  0  0  0  0  0  0
    8.6800    0.2620   19.9640 O   0  0  0  0  0  0  0  0  0  0  0  0
    6.6180   -0.0860   20.8230 N   0  0  0  0  0  0  0  0  0  0  0  0
    5.8960    0.4230   19.7150 C   0  0  0  0  0  0  0  0  0  0  0  0
    4.9310    1.4140   19.9340 C   0  0  0  0  0  0  0  0  0  0  0  0
    4.3720    2.0380   18.8120 C   0  0  0  0  0  0  0  0  0  0  0  0
    4.7990    1.6700   17.5290 C   0  0  0  0  0  0  0  0  0  0  0  0
    5.6890    0.6770   17.3050 N   0  0  0  0  0  0  0  0  0  0  0  0
    6.2340    0.0820   18.3870 C   0  0  0  0  0  0  0  0  0  0  0  0
    9.9510    1.1560   23.5500 C   0  0  0  0  0  0  0  0  0  0  0  0
   11.2140    1.7390   23.7380 C   0  0  0  0  0  0  0  0  0  0  0  0
  1  2  1  0
  2  3  2  0
  2  4  1  0
  4  5  1  0
  5  6  1  0
  6 21  2  0
  6  7  1  0
  7  8  2  0
  8  9  1  0
  9 10  1  0
  9 20  2  0
 10 11  1  0
 11 12  2  0
 11 13  1  0
 13 14  1  0
 14 15  2  0
 14 19  1  0
 15 16  1  0
 16 17  2  0
 17 18  1  0
 18 19  2  0
 20 21  1  0
M  END
