WPC0677_minimised.pdb
     RDKit          3D

 19 20  0  0  0  0  0  0  0  0999 V2000
   13.3030    3.7500   23.0700 N   0  0  0  0  0  0  0  0  0  0  0  0
   13.2940    2.6060   23.2200 C   0  0  0  0  0  0  0  0  0  0  0  0
   13.2950    1.1600   23.4870 C   0  0  0  0  0  0  0  0  0  0  0  0
   11.9350    0.5570   23.2070 C   0  0  0  0  0  0  0  0  0  0  0  0
   11.7730   -0.3670   22.1610 C   0  0  0  0  0  0  0  0  0  0  0  0
   10.4900   -0.8160   21.8250 C   0  0  0  0  0  0  0  0  0  0  0  0
    9.3700   -0.3340   22.5180 C   0  0  0  0  0  0  0  0  0  0  0  0
    8.0730   -0.5720   22.0260 N   0  0  0  0  0  0  0  0  0  0  0  0
    7.6880   -0.2610   20.7490 C   0  0  0  0  0  0  0  0  0  0  0  0
    8.4570   -0.0180   19.8390 O   0  0  0  0  0  0  0  0  0  0  0  0
    6.3310   -0.1840   20.6080 N   0  0  0  0  0  0  0  0  0  0  0  0
    5.6830    0.4310   19.5120 C   0  0  0  0  0  0  0  0  0  0  0  0
    4.7320    1.4290   19.7580 C   0  0  0  0  0  0  0  0  0  0  0  0
    4.2190    2.1240   18.6570 C   0  0  0  0  0  0  0  0  0  0  0  0
    4.6790    1.8190   17.3680 C   0  0  0  0  0  0  0  0  0  0  0  0
    5.5640    0.8270   17.1180 N   0  0  0  0  0  0  0  0  0  0  0  0
    6.0630    0.1630   18.1790 C   0  0  0  0  0  0  0  0  0  0  0  0
    9.5370    0.5200   23.6160 C   0  0  0  0  0  0  0  0  0  0  0  0
   10.8200    0.9610   23.9660 C   0  0  0  0  0  0  0  0  0  0  0  0
  1  2  3  0
  2  3  1  0
  3  4  1  0
  4 19  2  0
  4  5  1  0
  5  6  2  0
  6  7  1  0
  7  8  1  0
  7 18  2  0
  8  9  1  0
  9 10  2  0
  9 11  1  0
 11 12  1  0
 12 13  2  0
 12 17  1  0
 13 14  1  0
 14 15  2  0
 15 16  1  0
 16 17  2  0
 18 19  1  0
M  END
