WPC0967_minimised.pdb
     RDKit          3D

 22 23  0  0  0  0  0  0  0  0999 V2000
   13.3180    5.4770   21.8020 N   0  0  0  0  0  0  0  0  0  0  0  0
   13.0320    4.4060   22.1080 C   0  0  0  0  0  0  0  0  0  0  0  0
   12.7830    3.1630   22.4950 N   0  0  0  0  0  0  0  0  0  0  0  0
   13.7970    2.3360   22.9210 C   0  0  0  0  0  0  0  0  0  0  0  0
   14.9450    2.7170   22.9940 O   0  0  0  0  0  0  0  0  0  0  0  0
   13.4560    0.9080   23.3500 C   0  0  0  0  0  0  0  0  0  0  0  0
   12.0250    0.4750   23.0930 C   0  0  0  0  0  0  0  0  0  0  0  0
   11.7560   -0.4500   22.0710 C   0  0  0  0  0  0  0  0  0  0  0  0
   10.4320   -0.7890   21.7730 C   0  0  0  0  0  0  0  0  0  0  0  0
    9.3770   -0.1990   22.4830 C   0  0  0  0  0  0  0  0  0  0  0  0
    8.0530   -0.3580   22.0330 N   0  0  0  0  0  0  0  0  0  0  0  0
    7.6590   -0.0700   20.7550 C   0  0  0  0  0  0  0  0  0  0  0  0
    8.4280    0.1600   19.8400 O   0  0  0  0  0  0  0  0  0  0  0  0
    6.3020   -0.0070   20.6140 N   0  0  0  0  0  0  0  0  0  0  0  0
    5.6440    0.5610   19.5000 C   0  0  0  0  0  0  0  0  0  0  0  0
    4.6740    1.5470   19.7190 C   0  0  0  0  0  0  0  0  0  0  0  0
    4.1530    2.2050   18.5990 C   0  0  0  0  0  0  0  0  0  0  0  0
    4.6250    1.8770   17.3210 C   0  0  0  0  0  0  0  0  0  0  0  0
    5.5210    0.8880   17.0960 N   0  0  0  0  0  0  0  0  0  0  0  0
    6.0280    0.2600   18.1750 C   0  0  0  0  0  0  0  0  0  0  0  0
    9.6450    0.6610   23.5570 C   0  0  0  0  0  0  0  0  0  0  0  0
   10.9710    0.9900   23.8700 C   0  0  0  0  0  0  0  0  0  0  0  0
  1  2  3  0
  2  3  1  0
  3  4  1  0
  4  5  2  0
  4  6  1  0
  6  7  1  0
  7 22  2  0
  7  8  1  0
  8  9  2  0
  9 10  1  0
 10 11  1  0
 10 21  2  0
 11 12  1  0
 12 13  2  0
 12 14  1  0
 14 15  1  0
 15 16  2  0
 15 20  1  0
 16 17  1  0
 17 18  2  0
 18 19  1  0
 19 20  2  0
 21 22  1  0
M  END
