WPC0680_minimised.pdb
     RDKit          3D

 21 22  0  0  0  0  0  0  0  0999 V2000
   12.2400    4.2120   22.4380 N   0  0  0  0  0  0  0  0  0  0  0  0
   12.2010    3.3400   23.4660 C   0  0  0  0  0  0  0  0  0  0  0  0
   11.4890    3.4800   24.4370 O   0  0  0  0  0  0  0  0  0  0  0  0
   13.0440    2.3170   23.1930 O   0  0  0  0  0  0  0  0  0  0  0  0
   12.9310    1.0710   23.8950 C   0  0  0  0  0  0  0  0  0  0  0  0
   11.6300    0.4110   23.4970 C   0  0  0  0  0  0  0  0  0  0  0  0
   11.5550   -0.3140   22.2990 C   0  0  0  0  0  0  0  0  0  0  0  0
   10.3110   -0.7560   21.8360 C   0  0  0  0  0  0  0  0  0  0  0  0
    9.1420   -0.4420   22.5450 C   0  0  0  0  0  0  0  0  0  0  0  0
    7.8750   -0.6070   21.9550 N   0  0  0  0  0  0  0  0  0  0  0  0
    7.5670   -0.1950   20.6860 C   0  0  0  0  0  0  0  0  0  0  0  0
    8.3780    0.0740   19.8190 O   0  0  0  0  0  0  0  0  0  0  0  0
    6.2210   -0.0540   20.5010 N   0  0  0  0  0  0  0  0  0  0  0  0
    5.6270    0.5900   19.3920 C   0  0  0  0  0  0  0  0  0  0  0  0
    4.6680    1.5860   19.6130 C   0  0  0  0  0  0  0  0  0  0  0  0
    4.1990    2.2930   18.5000 C   0  0  0  0  0  0  0  0  0  0  0  0
    4.7100    2.0020   17.2270 C   0  0  0  0  0  0  0  0  0  0  0  0
    5.6050    1.0130   17.0010 N   0  0  0  0  0  0  0  0  0  0  0  0
    6.0570    0.3350   18.0730 C   0  0  0  0  0  0  0  0  0  0  0  0
    9.2270    0.1960   23.7900 C   0  0  0  0  0  0  0  0  0  0  0  0
   10.4740    0.6130   24.2740 C   0  0  0  0  0  0  0  0  0  0  0  0
  1  2  1  0
  2  3  2  0
  2  4  1  0
  4  5  1  0
  5  6  1  0
  6 21  2  0
  6  7  1  0
  7  8  2  0
  8  9  1  0
  9 10  1  0
  9 20  2  0
 10 11  1  0
 11 12  2  0
 11 13  1  0
 13 14  1  0
 14 15  2  0
 14 19  1  0
 15 16  1  0
 16 17  2  0
 17 18  1  0
 18 19  2  0
 20 21  1  0
M  END
