WPC0671_minimised.pdb
     RDKit          3D

 23 24  0  0  0  0  0  0  0  0999 V2000
   14.0440    5.8160   22.0010 C   0  0  0  0  0  0  0  0  0  0  0  0
   13.3060    4.7260   21.2130 C   0  0  0  0  0  0  0  0  0  0  0  0
   13.8820    3.4560   21.5260 O   0  0  0  0  0  0  0  0  0  0  0  0
   13.5730    2.8750   22.7050 C   0  0  0  0  0  0  0  0  0  0  0  0
   12.8250    3.3240   23.5520 O   0  0  0  0  0  0  0  0  0  0  0  0
   14.1050    1.6190   22.6850 N   0  0  0  0  0  0  0  0  0  0  0  0
   13.6510    0.5290   23.5440 C   0  0  0  0  0  0  0  0  0  0  0  0
   12.2110    0.1460   23.2560 C   0  0  0  0  0  0  0  0  0  0  0  0
   11.9070   -0.8130   22.2740 C   0  0  0  0  0  0  0  0  0  0  0  0
   10.5700   -1.0650   21.9320 C   0  0  0  0  0  0  0  0  0  0  0  0
    9.5360   -0.3660   22.5700 C   0  0  0  0  0  0  0  0  0  0  0  0
    8.2080   -0.4690   22.1110 N   0  0  0  0  0  0  0  0  0  0  0  0
    7.8180   -0.1690   20.8350 C   0  0  0  0  0  0  0  0  0  0  0  0
    8.5790    0.0030   19.9030 O   0  0  0  0  0  0  0  0  0  0  0  0
    6.4630   -0.0300   20.7130 N   0  0  0  0  0  0  0  0  0  0  0  0
    5.8050    0.5390   19.5970 C   0  0  0  0  0  0  0  0  0  0  0  0
    4.8470    1.5350   19.8150 C   0  0  0  0  0  0  0  0  0  0  0  0
    4.3020    2.1710   18.6930 C   0  0  0  0  0  0  0  0  0  0  0  0
    4.7350    1.8050   17.4110 C   0  0  0  0  0  0  0  0  0  0  0  0
    5.6230    0.8100   17.1880 N   0  0  0  0  0  0  0  0  0  0  0  0
    6.1590    0.2090   18.2700 C   0  0  0  0  0  0  0  0  0  0  0  0
    9.8310    0.5330   23.6020 C   0  0  0  0  0  0  0  0  0  0  0  0
   11.1650    0.7860   23.9460 C   0  0  0  0  0  0  0  0  0  0  0  0
  1  2  1  0
  2  3  1  0
  3  4  1  0
  4  5  2  0
  4  6  1  0
  6  7  1  0
  7  8  1  0
  8 23  2  0
  8  9  1  0
  9 10  2  0
 10 11  1  0
 11 12  1  0
 11 22  2  0
 12 13  1  0
 13 14  2  0
 13 15  1  0
 15 16  1  0
 16 17  2  0
 16 21  1  0
 17 18  1  0
 18 19  2  0
 19 20  1  0
 20 21  2  0
 22 23  1  0
M  END
