WPC0582_minimised.pdb
     RDKit          3D

 23 25  0  0  0  0  0  0  0  0999 V2000
    8.6080    0.2430   19.9420 O   0  0  0  0  0  0  0  0  0  0  0  0
    7.8650   -0.0110   20.8720 C   0  0  0  0  0  0  0  0  0  0  0  0
    8.2970   -0.3330   22.1310 N   0  0  0  0  0  0  0  0  0  0  0  0
    9.6430   -0.2450   22.5350 C   0  0  0  0  0  0  0  0  0  0  0  0
   10.6400   -0.8950   21.7930 C   0  0  0  0  0  0  0  0  0  0  0  0
   11.9920   -0.6270   22.0380 C   0  0  0  0  0  0  0  0  0  0  0  0
   12.3490    0.2790   23.0500 C   0  0  0  0  0  0  0  0  0  0  0  0
   13.8010    0.6690   23.2380 C   0  0  0  0  0  0  0  0  0  0  0  0
   14.2410    1.8000   22.2860 C   0  0  0  0  0  0  0  0  0  0  0  0
   13.5740    3.0950   22.4990 N   0  0  0  0  0  0  0  0  0  0  0  0
   12.2530    3.4040   22.2470 C   0  0  0  0  0  0  0  0  0  0  0  0
   12.0810    4.7060   22.6360 C   0  0  0  0  0  0  0  0  0  0  0  0
   13.2690    5.2260   23.0790 N   0  0  0  0  0  0  0  0  0  0  0  0
   14.1600    4.2640   22.9420 C   0  0  0  0  0  0  0  0  0  0  0  0
   11.3500    0.8570   23.8550 C   0  0  0  0  0  0  0  0  0  0  0  0
    9.9960    0.6020   23.5930 C   0  0  0  0  0  0  0  0  0  0  0  0
    6.5040    0.0390   20.7570 N   0  0  0  0  0  0  0  0  0  0  0  0
    5.8170    0.5620   19.6360 C   0  0  0  0  0  0  0  0  0  0  0  0
    4.8350    1.5380   19.8380 C   0  0  0  0  0  0  0  0  0  0  0  0
    4.2800    2.1460   18.7060 C   0  0  0  0  0  0  0  0  0  0  0  0
    4.7300    1.7770   17.4300 C   0  0  0  0  0  0  0  0  0  0  0  0
    5.6370    0.7950   17.2220 N   0  0  0  0  0  0  0  0  0  0  0  0
    6.1780    0.2180   18.3140 C   0  0  0  0  0  0  0  0  0  0  0  0
  1  2  2  0
  2  3  1  0
  2 17  1  0
  3  4  1  0
  4  5  2  0
  4 16  1  0
  5  6  1  0
  6  7  2  0
  7  8  1  0
  7 15  1  0
  8  9  1  0
  9 10  1  0
 10 11  1  0
 10 14  1  0
 11 12  2  0
 12 13  1  0
 13 14  2  0
 15 16  2  0
 17 18  1  0
 18 19  2  0
 18 23  1  0
 19 20  1  0
 20 21  2  0
 21 22  1  0
 22 23  2  0
M  END
