WPC0705_minimised.pdb
     RDKit          3D

 24 26  0  0  0  0  0  0  0  0999 V2000
    8.6850    0.1690   19.8930 O   0  0  0  0  0  0  0  0  0  0  0  0
    7.9810    0.0400   20.8730 C   0  0  0  0  0  0  0  0  0  0  0  0
    8.4660   -0.1130   22.1410 N   0  0  0  0  0  0  0  0  0  0  0  0
    9.8220    0.0450   22.4860 C   0  0  0  0  0  0  0  0  0  0  0  0
   10.7890   -0.8490   22.0020 C   0  0  0  0  0  0  0  0  0  0  0  0
   12.1480   -0.6280   22.2730 C   0  0  0  0  0  0  0  0  0  0  0  0
   12.5440    0.4970   23.0190 C   0  0  0  0  0  0  0  0  0  0  0  0
   14.0090    0.7680   23.3000 C   0  0  0  0  0  0  0  0  0  0  0  0
   14.5920    1.6620   22.2950 N   0  0  0  0  0  0  0  0  0  0  0  0
   14.3130    3.0000   22.2090 C   0  0  0  0  0  0  0  0  0  0  0  0
   14.1130    3.6760   23.2840 N   0  0  0  0  0  0  0  0  0  0  0  0
   14.0350    5.0110   23.0320 N   0  0  0  0  0  0  0  0  0  0  0  0
   14.1660    5.3820   21.7210 C   0  0  0  0  0  0  0  0  0  0  0  0
   14.3810    6.9410   21.2090 S   0  0  0  0  0  0  0  0  0  0  0  0
   14.3630    3.9110   20.7230 S   0  0  0  0  0  0  0  0  0  0  0  0
   11.5690    1.3790   23.5180 C   0  0  0  0  0  0  0  0  0  0  0  0
   10.2110    1.1510   23.2530 C   0  0  0  0  0  0  0  0  0  0  0  0
    6.6160    0.0880   20.8060 N   0  0  0  0  0  0  0  0  0  0  0  0
    5.8890    0.5590   19.6860 C   0  0  0  0  0  0  0  0  0  0  0  0
    4.9140    1.5430   19.8880 C   0  0  0  0  0  0  0  0  0  0  0  0
    4.3150    2.1090   18.7560 C   0  0  0  0  0  0  0  0  0  0  0  0
    4.7140    1.6900   17.4790 C   0  0  0  0  0  0  0  0  0  0  0  0
    5.6110    0.6990   17.2740 N   0  0  0  0  0  0  0  0  0  0  0  0
    6.1980    0.1640   18.3650 C   0  0  0  0  0  0  0  0  0  0  0  0
  1  2  2  0
  2  3  1  0
  2 18  1  0
  3  4  1  0
  4  5  2  0
  4 17  1  0
  5  6  1  0
  6  7  2  0
  7  8  1  0
  7 16  1  0
  8  9  1  0
  9 10  1  0
 10 11  2  0
 10 15  1  0
 11 12  1  0
 12 13  1  0
 13 14  2  0
 13 15  1  0
 16 17  2  0
 18 19  1  0
 19 20  2  0
 19 24  1  0
 20 21  1  0
 21 22  2  0
 22 23  1  0
 23 24  2  0
M  END
