WPC0888_minimised.pdb
     RDKit          3D

 23 24  0  0  0  0  0  0  0  0999 V2000
    8.5720    0.2790   19.9160 O   0  0  0  0  0  0  0  0  0  0  0  0
    7.7780    0.0470   20.8090 C   0  0  0  0  0  0  0  0  0  0  0  0
    8.1290   -0.2890   22.0890 N   0  0  0  0  0  0  0  0  0  0  0  0
    9.4450   -0.2140   22.5870 C   0  0  0  0  0  0  0  0  0  0  0  0
   10.5040   -0.7920   21.8670 C   0  0  0  0  0  0  0  0  0  0  0  0
   11.8290   -0.5300   22.2350 C   0  0  0  0  0  0  0  0  0  0  0  0
   12.0880    0.2910   23.3410 C   0  0  0  0  0  0  0  0  0  0  0  0
   13.7520    0.7810   23.6840 S   0  0  0  0  0  0  0  0  0  0  0  0
   14.0900    1.9500   22.3080 C   0  0  0  0  0  0  0  0  0  0  0  0
   13.0710    3.1070   22.2450 C   0  0  0  0  0  0  0  0  0  0  0  0
   13.2260    4.0480   23.3660 N   0  0  0  0  0  0  0  0  0  0  0  0
   12.3450    5.2280   23.2350 C   0  0  0  0  0  0  0  0  0  0  0  0
   10.8500    4.9030   23.4630 C   0  0  0  0  0  0  0  0  0  0  0  0
   10.7320    4.1650   24.6700 O   0  0  0  0  0  0  0  0  0  0  0  0
   11.0330    0.7960   24.1160 C   0  0  0  0  0  0  0  0  0  0  0  0
    9.7070    0.5490   23.7340 C   0  0  0  0  0  0  0  0  0  0  0  0
    6.4260    0.1380   20.6380 N   0  0  0  0  0  0  0  0  0  0  0  0
    5.7950    0.6930   19.5020 C   0  0  0  0  0  0  0  0  0  0  0  0
    4.8050    1.6650   19.6860 C   0  0  0  0  0  0  0  0  0  0  0  0
    4.3040    2.3040   18.5460 C   0  0  0  0  0  0  0  0  0  0  0  0
    4.8140    1.9730   17.2840 C   0  0  0  0  0  0  0  0  0  0  0  0
    5.7280    0.9950   17.0920 N   0  0  0  0  0  0  0  0  0  0  0  0
    6.2150    0.3840   18.1900 C   0  0  0  0  0  0  0  0  0  0  0  0
  1  2  2  0
  2  3  1  0
  2 17  1  0
  3  4  1  0
  4  5  2  0
  4 16  1  0
  5  6  1  0
  6  7  2  0
  7  8  1  0
  7 15  1  0
  8  9  1  0
  9 10  1  0
 10 11  1  0
 11 12  1  0
 12 13  1  0
 13 14  1  0
 15 16  2  0
 17 18  1  0
 18 19  2  0
 18 23  1  0
 19 20  1  0
 20 21  2  0
 21 22  1  0
 22 23  2  0
M  END
