WPC0811_minimised.pdb
     RDKit          3D

 24 25  0  0  0  0  0  0  0  0999 V2000
   13.7220    6.0530   21.3080 O   0  0  0  0  0  0  0  0  0  0  0  0
   14.0440    4.9220   21.6070 C   0  0  0  0  0  0  0  0  0  0  0  0
   14.7070    4.1480   20.7310 O   0  0  0  0  0  0  0  0  0  0  0  0
   14.0560    4.4460   23.0620 C   0  0  0  0  0  0  0  0  0  0  0  0
   13.4630    3.1400   23.3240 O   0  0  0  0  0  0  0  0  0  0  0  0
   14.0970    2.0030   22.9140 C   0  0  0  0  0  0  0  0  0  0  0  0
   15.1060    2.0260   22.2360 O   0  0  0  0  0  0  0  0  0  0  0  0
   13.5490    0.7250   23.5410 C   0  0  0  0  0  0  0  0  0  0  0  0
   12.0940    0.4330   23.2180 C   0  0  0  0  0  0  0  0  0  0  0  0
   11.7600   -0.6260   22.3560 C   0  0  0  0  0  0  0  0  0  0  0  0
   10.4200   -0.8550   22.0140 C   0  0  0  0  0  0  0  0  0  0  0  0
    9.4110   -0.0440   22.5520 C   0  0  0  0  0  0  0  0  0  0  0  0
    8.0840   -0.1710   22.1050 N   0  0  0  0  0  0  0  0  0  0  0  0
    7.6990    0.0370   20.8110 C   0  0  0  0  0  0  0  0  0  0  0  0
    8.4690    0.1640   19.8790 O   0  0  0  0  0  0  0  0  0  0  0  0
    6.3440    0.1390   20.6740 N   0  0  0  0  0  0  0  0  0  0  0  0
    5.6840    0.6620   19.5390 C   0  0  0  0  0  0  0  0  0  0  0  0
    4.7110    1.6500   19.7270 C   0  0  0  0  0  0  0  0  0  0  0  0
    4.1700    2.2550   18.5880 C   0  0  0  0  0  0  0  0  0  0  0  0
    4.6230    1.8700   17.3180 C   0  0  0  0  0  0  0  0  0  0  0  0
    5.5220    0.8780   17.1240 N   0  0  0  0  0  0  0  0  0  0  0  0
    6.0530    0.3050   18.2230 C   0  0  0  0  0  0  0  0  0  0  0  0
    9.7340    0.9680   23.4660 C   0  0  0  0  0  0  0  0  0  0  0  0
   11.0740    1.2060   23.8010 C   0  0  0  0  0  0  0  0  0  0  0  0
  1  2  2  0
  2  3  1  0
  2  4  1  0
  4  5  1  0
  5  6  1  0
  6  7  2  0
  6  8  1  0
  8  9  1  0
  9 24  2  0
  9 10  1  0
 10 11  2  0
 11 12  1  0
 12 13  1  0
 12 23  2  0
 13 14  1  0
 14 15  2  0
 14 16  1  0
 16 17  1  0
 17 18  2  0
 17 22  1  0
 18 19  1  0
 19 20  2  0
 20 21  1  0
 21 22  2  0
 23 24  1  0
M  END
