WPC0465_minimised.pdb
     RDKit          3D

 24 25  0  0  0  0  0  0  0  0999 V2000
    8.8620    5.4470   22.7430 C   0  0  0  0  0  0  0  0  0  0  0  0
    9.3180    4.0410   23.0620 C   0  0  0  0  0  0  0  0  0  0  0  0
   10.5390    3.6230   22.8660 C   0  0  0  0  0  0  0  0  0  0  0  0
   11.7680    3.2630   22.6240 C   0  0  0  0  0  0  0  0  0  0  0  0
   12.8220    3.1520   23.6870 C   0  0  0  0  0  0  0  0  0  0  0  0
   13.7580    2.0160   23.5210 N   0  0  0  0  0  0  0  0  0  0  0  0
   14.5970    1.9960   22.3180 C   0  0  0  0  0  0  0  0  0  0  0  0
   13.3390    0.6870   24.0050 C   0  0  0  0  0  0  0  0  0  0  0  0
   11.9530    0.2830   23.5490 C   0  0  0  0  0  0  0  0  0  0  0  0
   11.7660   -0.3030   22.2870 C   0  0  0  0  0  0  0  0  0  0  0  0
   10.4690   -0.5540   21.8220 C   0  0  0  0  0  0  0  0  0  0  0  0
    9.3550   -0.2040   22.6020 C   0  0  0  0  0  0  0  0  0  0  0  0
    8.0470   -0.2710   22.0760 N   0  0  0  0  0  0  0  0  0  0  0  0
    7.6780    0.1000   20.8100 C   0  0  0  0  0  0  0  0  0  0  0  0
    8.4470    0.3640   19.9070 O   0  0  0  0  0  0  0  0  0  0  0  0
    6.3230    0.1750   20.6560 N   0  0  0  0  0  0  0  0  0  0  0  0
    5.6730    0.7180   19.5240 C   0  0  0  0  0  0  0  0  0  0  0  0
    4.6940    1.7010   19.7110 C   0  0  0  0  0  0  0  0  0  0  0  0
    4.1720    2.3210   18.5690 C   0  0  0  0  0  0  0  0  0  0  0  0
    4.6470    1.9540   17.3020 C   0  0  0  0  0  0  0  0  0  0  0  0
    5.5530    0.9680   17.1100 N   0  0  0  0  0  0  0  0  0  0  0  0
    6.0670    0.3840   18.2100 C   0  0  0  0  0  0  0  0  0  0  0  0
    9.5440    0.3020   23.8960 C   0  0  0  0  0  0  0  0  0  0  0  0
   10.8410    0.5400   24.3730 C   0  0  0  0  0  0  0  0  0  0  0  0
  1  2  1  0
  2  3  2  0
  3  4  2  0
  4  5  1  0
  5  6  1  0
  6  7  1  0
  6  8  1  0
  8  9  1  0
  9 24  2  0
  9 10  1  0
 10 11  2  0
 11 12  1  0
 12 13  1  0
 12 23  2  0
 13 14  1  0
 14 15  2  0
 14 16  1  0
 16 17  1  0
 17 18  2  0
 17 22  1  0
 18 19  1  0
 19 20  2  0
 20 21  1  0
 21 22  2  0
 23 24  1  0
M  END
