WPC0902_minimised.pdb
     RDKit          3D

 17 18  0  0  0  0  0  0  0  0999 V2000
    8.5520    0.2080   19.8370 O   0  0  0  0  0  0  0  0  0  0  0  0
    7.8600    0.1040   20.8300 C   0  0  0  0  0  0  0  0  0  0  0  0
    8.3720   -0.0520   22.0870 N   0  0  0  0  0  0  0  0  0  0  0  0
    9.7480    0.0280   22.3730 C   0  0  0  0  0  0  0  0  0  0  0  0
   10.6250   -0.9390   21.8570 C   0  0  0  0  0  0  0  0  0  0  0  0
   12.0090   -0.7950   22.0320 C   0  0  0  0  0  0  0  0  0  0  0  0
   12.5100    0.3180   22.7240 C   0  0  0  0  0  0  0  0  0  0  0  0
   14.2320    0.5110   22.9170 Cl  0  0  0  0  0  0  0  0  0  0  0  0
   11.6360    1.2800   23.2520 C   0  0  0  0  0  0  0  0  0  0  0  0
   10.2500    1.1330   23.0780 C   0  0  0  0  0  0  0  0  0  0  0  0
    6.4960    0.1830   20.7850 N   0  0  0  0  0  0  0  0  0  0  0  0
    5.7650    0.6510   19.6660 C   0  0  0  0  0  0  0  0  0  0  0  0
    4.7930    1.6380   19.8640 C   0  0  0  0  0  0  0  0  0  0  0  0
    4.2100    2.2140   18.7290 C   0  0  0  0  0  0  0  0  0  0  0  0
    4.6260    1.8060   17.4540 C   0  0  0  0  0  0  0  0  0  0  0  0
    5.5180    0.8110   17.2510 N   0  0  0  0  0  0  0  0  0  0  0  0
    6.0800    0.2580   18.3450 C   0  0  0  0  0  0  0  0  0  0  0  0
  1  2  2  0
  2  3  1  0
  2 11  1  0
  3  4  1  0
  4  5  2  0
  4 10  1  0
  5  6  1  0
  6  7  2  0
  7  8  1  0
  7  9  1  0
  9 10  2  0
 11 12  1  0
 12 13  2  0
 12 17  1  0
 13 14  1  0
 14 15  2  0
 15 16  1  0
 16 17  2  0
M  END
