WPC0200_minimised.pdb
     RDKit          3D

 23 25  0  0  0  0  0  0  0  0999 V2000
    9.1150    1.1200   20.7740 O   0  0  0  0  0  0  0  0  0  0  0  0
    8.8380    0.0310   21.2270 C   0  0  0  0  0  0  0  0  0  0  0  0
    9.7020   -0.7060   21.9920 N   0  0  0  0  0  0  0  0  0  0  0  0
   11.0430   -0.3480   22.2530 C   0  0  0  0  0  0  0  0  0  0  0  0
   12.0670   -1.2420   21.9170 C   0  0  0  0  0  0  0  0  0  0  0  0
   13.4120   -0.8730   22.0750 C   0  0  0  0  0  0  0  0  0  0  0  0
   13.7320    0.3880   22.6050 C   0  0  0  0  0  0  0  0  0  0  0  0
   12.7080    1.2770   22.9640 C   0  0  0  0  0  0  0  0  0  0  0  0
   11.3650    0.9120   22.7840 C   0  0  0  0  0  0  0  0  0  0  0  0
    7.6360   -0.5810   20.9660 N   0  0  0  0  0  0  0  0  0  0  0  0
    6.6820   -0.0660   20.0330 C   0  0  0  0  0  0  0  0  0  0  0  0
    6.8940   -0.2490   18.6540 C   0  0  0  0  0  0  0  0  0  0  0  0
    6.1010    0.2650   17.6970 N   0  0  0  0  0  0  0  0  0  0  0  0
    5.0770    1.0450   18.0920 C   0  0  0  0  0  0  0  0  0  0  0  0
    4.7770    1.2760   19.4380 C   0  0  0  0  0  0  0  0  0  0  0  0
    5.6050    0.7440   20.4350 C   0  0  0  0  0  0  0  0  0  0  0  0
    5.3910    0.9700   21.7900 N   0  0  0  0  0  0  0  0  0  0  0  0
    4.6320    1.9070   22.4810 C   0  0  0  0  0  0  0  0  0  0  0  0
    4.2100    1.6190   23.7910 C   0  0  0  0  0  0  0  0  0  0  0  0
    3.3740    2.5090   24.4900 C   0  0  0  0  0  0  0  0  0  0  0  0
    3.0020    3.7250   23.8950 C   0  0  0  0  0  0  0  0  0  0  0  0
    3.4970    4.0560   22.6230 C   0  0  0  0  0  0  0  0  0  0  0  0
    4.3120    3.1550   21.9280 C   0  0  0  0  0  0  0  0  0  0  0  0
  1  2  2  0
  2  3  1  0
  2 10  1  0
  3  4  1  0
  4  5  2  0
  4  9  1  0
  5  6  1  0
  6  7  2  0
  7  8  1  0
  8  9  2  0
 10 11  1  0
 11 12  2  0
 11 16  1  0
 12 13  1  0
 13 14  2  0
 14 15  1  0
 15 16  2  0
 16 17  1  0
 17 18  1  0
 18 19  2  0
 18 23  1  0
 19 20  1  0
 20 21  2  0
 21 22  1  0
 22 23  2  0
M  END
