WPC0073_minimised.pdb
     RDKit          3D

 22 23  0  0  0  0  0  0  0  0999 V2000
   10.0450    4.7370   23.6370 C   0  0  0  0  0  0  0  0  0  0  0  0
    9.0790    3.7210   23.3190 O   0  0  0  0  0  0  0  0  0  0  0  0
    8.0090    4.0830   22.5580 C   0  0  0  0  0  0  0  0  0  0  0  0
    7.7540    5.2250   22.2330 O   0  0  0  0  0  0  0  0  0  0  0  0
    7.2850    2.8910   22.0630 C   0  0  0  0  0  0  0  0  0  0  0  0
    6.2020    2.8720   21.2430 C   0  0  0  0  0  0  0  0  0  0  0  0
    5.6620    1.7950   20.3540 C   0  0  0  0  0  0  0  0  0  0  0  0
    4.7760    2.2070   19.3440 C   0  0  0  0  0  0  0  0  0  0  0  0
    4.5610    1.4110   18.2120 C   0  0  0  0  0  0  0  0  0  0  0  0
    5.0950    0.1810   18.0710 N   0  0  0  0  0  0  0  0  0  0  0  0
    5.8760   -0.2650   19.0750 C   0  0  0  0  0  0  0  0  0  0  0  0
    6.1740    0.4810   20.2360 C   0  0  0  0  0  0  0  0  0  0  0  0
    7.0470   -0.0790   21.2010 N   0  0  0  0  0  0  0  0  0  0  0  0
    8.3990   -0.1730   21.0330 C   0  0  0  0  0  0  0  0  0  0  0  0
    8.9120    0.0460   19.9580 O   0  0  0  0  0  0  0  0  0  0  0  0
    9.0910   -0.4340   22.1870 N   0  0  0  0  0  0  0  0  0  0  0  0
   10.4810   -0.2460   22.3460 C   0  0  0  0  0  0  0  0  0  0  0  0
   11.3940   -1.0910   21.7010 C   0  0  0  0  0  0  0  0  0  0  0  0
   12.7760   -0.8510   21.7980 C   0  0  0  0  0  0  0  0  0  0  0  0
   13.2430    0.2370   22.5520 C   0  0  0  0  0  0  0  0  0  0  0  0
   12.3310    1.0730   23.2150 C   0  0  0  0  0  0  0  0  0  0  0  0
   10.9520    0.8250   23.1190 C   0  0  0  0  0  0  0  0  0  0  0  0
  1  2  1  0
  2  3  1  0
  3  4  2  0
  3  5  1  0
  5  6  1  0
  6  7  1  0
  7  8  2  0
  7 12  1  0
  8  9  1  0
  9 10  2  0
 10 11  1  0
 11 12  2  0
 12 13  1  0
 13 14  1  0
 14 15  2  0
 14 16  1  0
 16 17  1  0
 17 18  2  0
 17 22  1  0
 18 19  1  0
 19 20  2  0
 20 21  1  0
 21 22  2  0
M  END
