WPC0770_minimised.pdb
     RDKit          3D

 22 23  0  0  0  0  0  0  0  0999 V2000
   10.7240    5.7110   23.5760 C   0  0  0  0  0  0  0  0  0  0  0  0
   12.0470    5.6870   23.7790 C   0  0  0  0  0  0  0  0  0  0  0  0
   13.0090    4.8630   22.9590 C   0  0  0  0  0  0  0  0  0  0  0  0
   12.9060    3.4710   23.3930 N   0  0  0  0  0  0  0  0  0  0  0  0
   13.8250    2.5480   22.7150 C   0  0  0  0  0  0  0  0  0  0  0  0
   13.6560    1.0960   23.2170 C   0  0  0  0  0  0  0  0  0  0  0  0
   12.2520    0.5580   23.0010 C   0  0  0  0  0  0  0  0  0  0  0  0
   11.9920   -0.3140   21.9340 C   0  0  0  0  0  0  0  0  0  0  0  0
   10.6770   -0.7200   21.6760 C   0  0  0  0  0  0  0  0  0  0  0  0
    9.6170   -0.2350   22.4560 C   0  0  0  0  0  0  0  0  0  0  0  0
    8.2830   -0.4280   22.0400 N   0  0  0  0  0  0  0  0  0  0  0  0
    7.8330   -0.1160   20.7840 C   0  0  0  0  0  0  0  0  0  0  0  0
    8.5590    0.1530   19.8460 O   0  0  0  0  0  0  0  0  0  0  0  0
    6.4710   -0.0740   20.6830 N   0  0  0  0  0  0  0  0  0  0  0  0
    5.7800    0.4900   19.5830 C   0  0  0  0  0  0  0  0  0  0  0  0
    4.8200    1.4810   19.8190 C   0  0  0  0  0  0  0  0  0  0  0  0
    4.2760    2.1380   18.7080 C   0  0  0  0  0  0  0  0  0  0  0  0
    4.7170    1.8030   17.4200 C   0  0  0  0  0  0  0  0  0  0  0  0
    5.6020    0.8110   17.1790 N   0  0  0  0  0  0  0  0  0  0  0  0
    6.1300    0.1830   18.2490 C   0  0  0  0  0  0  0  0  0  0  0  0
    9.8830    0.5660   23.5740 C   0  0  0  0  0  0  0  0  0  0  0  0
   11.2020    0.9510   23.8530 C   0  0  0  0  0  0  0  0  0  0  0  0
  1  2  2  0
  2  3  1  0
  3  4  1  0
  4  5  1  0
  5  6  1  0
  6  7  1  0
  7 22  2  0
  7  8  1  0
  8  9  2  0
  9 10  1  0
 10 11  1  0
 10 21  2  0
 11 12  1  0
 12 13  2  0
 12 14  1  0
 14 15  1  0
 15 16  2  0
 15 20  1  0
 16 17  1  0
 17 18  2  0
 18 19  1  0
 19 20  2  0
 21 22  1  0
M  END
