WPC0913_minimised.pdb
     RDKit          3D

 20 21  0  0  0  0  0  0  0  0999 V2000
   12.9020    4.8570   22.3460 C   0  0  0  0  0  0  0  0  0  0  0  0
   12.6910    3.4290   22.8800 C   0  0  0  0  0  0  0  0  0  0  0  0
   13.9130    2.5230   22.6180 C   0  0  0  0  0  0  0  0  0  0  0  0
   13.8200    0.9110   23.5070 S   0  0  0  0  0  0  0  0  0  0  0  0
   12.1690    0.3510   23.1880 C   0  0  0  0  0  0  0  0  0  0  0  0
   11.9250   -0.4640   22.0760 C   0  0  0  0  0  0  0  0  0  0  0  0
   10.6060   -0.8110   21.7530 C   0  0  0  0  0  0  0  0  0  0  0  0
    9.5360   -0.3230   22.5200 C   0  0  0  0  0  0  0  0  0  0  0  0
    8.2100   -0.4710   22.0640 N   0  0  0  0  0  0  0  0  0  0  0  0
    7.7960   -0.1260   20.8050 C   0  0  0  0  0  0  0  0  0  0  0  0
    8.5460    0.1590   19.8900 O   0  0  0  0  0  0  0  0  0  0  0  0
    6.4360   -0.0800   20.6760 N   0  0  0  0  0  0  0  0  0  0  0  0
    5.7650    0.4930   19.5710 C   0  0  0  0  0  0  0  0  0  0  0  0
    4.7990    1.4800   19.8010 C   0  0  0  0  0  0  0  0  0  0  0  0
    4.2690    2.1420   18.6870 C   0  0  0  0  0  0  0  0  0  0  0  0
    4.7270    1.8140   17.4030 C   0  0  0  0  0  0  0  0  0  0  0  0
    5.6200    0.8260   17.1680 N   0  0  0  0  0  0  0  0  0  0  0  0
    6.1370    0.1960   18.2420 C   0  0  0  0  0  0  0  0  0  0  0  0
    9.7890    0.4310   23.6750 C   0  0  0  0  0  0  0  0  0  0  0  0
   11.1090    0.7600   24.0140 C   0  0  0  0  0  0  0  0  0  0  0  0
  1  2  1  0
  2  3  1  0
  3  4  1  0
  4  5  1  0
  5 20  2  0
  5  6  1  0
  6  7  2  0
  7  8  1  0
  8  9  1  0
  8 19  2  0
  9 10  1  0
 10 11  2  0
 10 12  1  0
 12 13  1  0
 13 14  2  0
 13 18  1  0
 14 15  1  0
 15 16  2  0
 16 17  1  0
 17 18  2  0
 19 20  1  0
M  END
