WPC0975_minimised.pdb
     RDKit          3D

 19 20  0  0  0  0  0  0  0  0999 V2000
    8.4540   -0.0190   19.8060 O   0  0  0  0  0  0  0  0  0  0  0  0
    7.6900   -0.2950   20.7120 C   0  0  0  0  0  0  0  0  0  0  0  0
    8.0720   -0.6280   21.9830 N   0  0  0  0  0  0  0  0  0  0  0  0
    9.3370   -0.3140   22.5180 C   0  0  0  0  0  0  0  0  0  0  0  0
   10.5100   -0.6070   21.8060 C   0  0  0  0  0  0  0  0  0  0  0  0
   11.7310   -0.0420   22.1960 C   0  0  0  0  0  0  0  0  0  0  0  0
   11.7790    0.7970   23.3210 C   0  0  0  0  0  0  0  0  0  0  0  0
   13.0590    1.5250   23.6690 C   0  0  0  0  0  0  0  0  0  0  0  0
   13.0300    2.9480   23.2720 N   0  0  0  0  0  0  0  0  0  0  0  0
   12.0590    3.6840   24.0150 O   0  0  0  0  0  0  0  0  0  0  0  0
   10.6260    0.9880   24.1030 C   0  0  0  0  0  0  0  0  0  0  0  0
    9.4020    0.4430   23.6950 C   0  0  0  0  0  0  0  0  0  0  0  0
    6.3330   -0.2230   20.5690 N   0  0  0  0  0  0  0  0  0  0  0  0
    5.6880    0.4160   19.4860 C   0  0  0  0  0  0  0  0  0  0  0  0
    4.7510    1.4240   19.7500 C   0  0  0  0  0  0  0  0  0  0  0  0
    4.2440    2.1420   18.6590 C   0  0  0  0  0  0  0  0  0  0  0  0
    4.6960    1.8470   17.3650 C   0  0  0  0  0  0  0  0  0  0  0  0
    5.5700    0.8500   17.1000 N   0  0  0  0  0  0  0  0  0  0  0  0
    6.0620    0.1640   18.1500 C   0  0  0  0  0  0  0  0  0  0  0  0
  1  2  2  0
  2  3  1  0
  2 13  1  0
  3  4  1  0
  4  5  2  0
  4 12  1  0
  5  6  1  0
  6  7  2  0
  7  8  1  0
  7 11  1  0
  8  9  1  0
  9 10  1  0
 11 12  2  0
 13 14  1  0
 14 15  2  0
 14 19  1  0
 15 16  1  0
 16 17  2  0
 17 18  1  0
 18 19  2  0
M  END
