WPC0836_minimised.pdb
     RDKit          3D

 23 24  0  0  1  0  0  0  0  0999 V2000
   12.6440    4.5710   23.4750 O   0  0  0  0  0  0  0  0  0  0  0  0
   12.5860    3.3600   23.4410 C   0  0  0  0  0  0  0  0  0  0  0  0
   11.6230    2.7060   24.0920 O   0  0  0  0  0  0  0  0  0  0  0  0
   13.6950    2.5400   22.8830 C   0  0  0  0  0  0  0  0  0  0  0  0
   14.0130    1.2310   23.0820 C   0  0  0  0  0  0  0  0  0  0  0  0
   13.3860    0.1780   23.9850 C   0  0  2  0  0  0  0  0  0  0  0  0
   14.2010   -0.9820   23.9410 O   0  0  0  0  0  0  0  0  0  0  0  0
   11.9880   -0.2060   23.5560 C   0  0  0  0  0  0  0  0  0  0  0  0
   11.7780   -0.6480   22.2420 C   0  0  0  0  0  0  0  0  0  0  0  0
   10.4760   -0.8620   21.7840 C   0  0  0  0  0  0  0  0  0  0  0  0
    9.3750   -0.5970   22.6120 C   0  0  0  0  0  0  0  0  0  0  0  0
    8.0660   -0.5790   22.0820 N   0  0  0  0  0  0  0  0  0  0  0  0
    7.7180   -0.0930   20.8480 C   0  0  0  0  0  0  0  0  0  0  0  0
    8.5050    0.2490   19.9860 O   0  0  0  0  0  0  0  0  0  0  0  0
    6.3660   -0.0070   20.6730 N   0  0  0  0  0  0  0  0  0  0  0  0
    5.7380    0.5830   19.5520 C   0  0  0  0  0  0  0  0  0  0  0  0
    4.7590    1.5640   19.7510 C   0  0  0  0  0  0  0  0  0  0  0  0
    4.2590    2.2200   18.6200 C   0  0  0  0  0  0  0  0  0  0  0  0
    4.7570    1.8930   17.3500 C   0  0  0  0  0  0  0  0  0  0  0  0
    5.6620    0.9100   17.1440 N   0  0  0  0  0  0  0  0  0  0  0  0
    6.1520    0.2870   18.2340 C   0  0  0  0  0  0  0  0  0  0  0  0
    9.5870   -0.2520   23.9550 C   0  0  0  0  0  0  0  0  0  0  0  0
   10.8940   -0.0800   24.4360 C   0  0  0  0  0  0  0  0  0  0  0  0
  1  2  2  0
  2  3  1  0
  2  4  1  0
  4  5  2  0
  5  6  1  0
  6  7  1  6
  6  8  1  0
  8 23  2  0
  8  9  1  0
  9 10  2  0
 10 11  1  0
 11 12  1  0
 11 22  2  0
 12 13  1  0
 13 14  2  0
 13 15  1  0
 15 16  1  0
 16 17  2  0
 16 21  1  0
 17 18  1  0
 18 19  2  0
 19 20  1  0
 20 21  2  0
 22 23  1  0
M  END
