WPC0234_minimised.pdb
     RDKit          3D

 19 20  0  0  0  0  0  0  0  0999 V2000
    7.0990    3.4250   22.2760 C   0  0  0  0  0  0  0  0  0  0  0  0
    5.6340    3.6980   21.8820 C   0  0  0  0  0  0  0  0  0  0  0  0
    4.6770    2.1290   21.7330 S   0  0  0  0  0  0  0  0  0  0  0  0
    5.1080    1.5460   20.1030 C   0  0  0  0  0  0  0  0  0  0  0  0
    4.5610    2.1690   18.9740 C   0  0  0  0  0  0  0  0  0  0  0  0
    4.9360    1.7350   17.6940 C   0  0  0  0  0  0  0  0  0  0  0  0
    5.7910    0.7090   17.4830 N   0  0  0  0  0  0  0  0  0  0  0  0
    6.3380    0.1310   18.5720 C   0  0  0  0  0  0  0  0  0  0  0  0
    6.0350    0.5120   19.8970 C   0  0  0  0  0  0  0  0  0  0  0  0
    6.7600   -0.0190   20.9920 N   0  0  0  0  0  0  0  0  0  0  0  0
    8.1220    0.0460   21.0650 C   0  0  0  0  0  0  0  0  0  0  0  0
    8.7910    0.3570   20.1010 O   0  0  0  0  0  0  0  0  0  0  0  0
    8.6560   -0.2030   22.2990 N   0  0  0  0  0  0  0  0  0  0  0  0
   10.0030    0.0690   22.6240 C   0  0  0  0  0  0  0  0  0  0  0  0
   11.0460   -0.6150   21.9760 C   0  0  0  0  0  0  0  0  0  0  0  0
   12.3820   -0.2420   22.2010 C   0  0  0  0  0  0  0  0  0  0  0  0
   12.6740    0.8200   23.0730 C   0  0  0  0  0  0  0  0  0  0  0  0
   11.6300    1.5010   23.7200 C   0  0  0  0  0  0  0  0  0  0  0  0
   10.2980    1.1180   23.5060 C   0  0  0  0  0  0  0  0  0  0  0  0
  1  2  1  0
  2  3  1  0
  3  4  1  0
  4  5  2  0
  4  9  1  0
  5  6  1  0
  6  7  2  0
  7  8  1  0
  8  9  2  0
  9 10  1  0
 10 11  1  0
 11 12  2  0
 11 13  1  0
 13 14  1  0
 14 15  2  0
 14 19  1  0
 15 16  1  0
 16 17  2  0
 17 18  1  0
 18 19  2  0
M  END
