WPC0372_minimised.pdb
     RDKit          3D

 24 26  0  0  0  0  0  0  0  0999 V2000
    8.3380    0.1240   19.9160 O   0  0  0  0  0  0  0  0  0  0  0  0
    7.5150   -0.1100   20.7830 C   0  0  0  0  0  0  0  0  0  0  0  0
    7.8180   -0.5230   22.0520 N   0  0  0  0  0  0  0  0  0  0  0  0
    9.1240   -0.5170   22.5750 C   0  0  0  0  0  0  0  0  0  0  0  0
   10.1640   -1.1180   21.8530 C   0  0  0  0  0  0  0  0  0  0  0  0
   11.4960   -0.8690   22.2010 C   0  0  0  0  0  0  0  0  0  0  0  0
   11.7840   -0.0310   23.2890 C   0  0  0  0  0  0  0  0  0  0  0  0
   13.2140    0.4110   23.5310 C   0  0  0  0  0  0  0  0  0  0  0  0
   13.4850    1.7690   23.0620 N   0  0  0  0  0  0  0  0  0  0  0  0
   12.6130    2.8160   22.8550 C   0  0  0  0  0  0  0  0  0  0  0  0
   13.4440    3.8630   22.5890 C   0  0  0  0  0  0  0  0  0  0  0  0
   12.9880    5.2760   22.3770 C   0  0  0  0  0  0  0  0  0  0  0  0
   13.7940    5.9700   21.5410 F   0  0  0  0  0  0  0  0  0  0  0  0
   14.7420    3.4460   22.6170 N   0  0  0  0  0  0  0  0  0  0  0  0
   14.7650    2.1670   22.8560 N   0  0  0  0  0  0  0  0  0  0  0  0
   10.7400    0.4600   24.0960 C   0  0  0  0  0  0  0  0  0  0  0  0
    9.4060    0.2290   23.7280 C   0  0  0  0  0  0  0  0  0  0  0  0
    6.1740    0.0570   20.5920 N   0  0  0  0  0  0  0  0  0  0  0  0
    5.5800    0.6600   19.4600 C   0  0  0  0  0  0  0  0  0  0  0  0
    4.6070    1.6480   19.6500 C   0  0  0  0  0  0  0  0  0  0  0  0
    4.1220    2.3080   18.5140 C   0  0  0  0  0  0  0  0  0  0  0  0
    4.6300    1.9780   17.2500 C   0  0  0  0  0  0  0  0  0  0  0  0
    5.5340    0.9910   17.0530 N   0  0  0  0  0  0  0  0  0  0  0  0
    6.0080    0.3620   18.1470 C   0  0  0  0  0  0  0  0  0  0  0  0
  1  2  2  0
  2  3  1  0
  2 18  1  0
  3  4  1  0
  4  5  2  0
  4 17  1  0
  5  6  1  0
  6  7  2  0
  7  8  1  0
  7 16  1  0
  8  9  1  0
  9 10  1  0
  9 15  1  0
 10 11  2  0
 11 12  1  0
 11 14  1  0
 12 13  1  0
 14 15  2  0
 16 17  2  0
 18 19  1  0
 19 20  2  0
 19 24  1  0
 20 21  1  0
 21 22  2  0
 22 23  1  0
 23 24  2  0
M  END
