WPC0426_minimised.pdb
     RDKit          3D

 23 25  0  0  0  0  0  0  0  0999 V2000
    8.5630    0.3200   19.9330 O   0  0  0  0  0  0  0  0  0  0  0  0
    7.8310    0.0380   20.8620 C   0  0  0  0  0  0  0  0  0  0  0  0
    8.2790   -0.2730   22.1170 N   0  0  0  0  0  0  0  0  0  0  0  0
    9.6270   -0.1550   22.5090 C   0  0  0  0  0  0  0  0  0  0  0  0
   10.6310   -0.7920   21.7660 C   0  0  0  0  0  0  0  0  0  0  0  0
   11.9810   -0.5190   22.0210 C   0  0  0  0  0  0  0  0  0  0  0  0
   12.3280    0.3810   23.0400 C   0  0  0  0  0  0  0  0  0  0  0  0
   13.7820    0.7420   23.2700 C   0  0  0  0  0  0  0  0  0  0  0  0
   14.2590    1.9060   22.3770 C   0  0  0  0  0  0  0  0  0  0  0  0
   13.5610    3.2170   22.6240 C   0  0  0  0  0  0  0  0  0  0  0  0
   12.2580    3.4870   22.2840 N   0  0  0  0  0  0  0  0  0  0  0  0
   11.9940    4.7770   22.6810 C   0  0  0  0  0  0  0  0  0  0  0  0
   13.1620    5.2470   23.2130 C   0  0  0  0  0  0  0  0  0  0  0  0
   14.1310    4.2730   23.1730 N   0  0  0  0  0  0  0  0  0  0  0  0
   11.3210    0.9590   23.8350 C   0  0  0  0  0  0  0  0  0  0  0  0
    9.9700    0.6970   23.5660 C   0  0  0  0  0  0  0  0  0  0  0  0
    6.4680    0.0460   20.7500 N   0  0  0  0  0  0  0  0  0  0  0  0
    5.7710    0.5630   19.6330 C   0  0  0  0  0  0  0  0  0  0  0  0
    4.7890    1.5390   19.8400 C   0  0  0  0  0  0  0  0  0  0  0  0
    4.2340    2.1520   18.7100 C   0  0  0  0  0  0  0  0  0  0  0  0
    4.6820    1.7860   17.4330 C   0  0  0  0  0  0  0  0  0  0  0  0
    5.5880    0.8050   17.2200 N   0  0  0  0  0  0  0  0  0  0  0  0
    6.1300    0.2230   18.3100 C   0  0  0  0  0  0  0  0  0  0  0  0
  1  2  2  0
  2  3  1  0
  2 17  1  0
  3  4  1  0
  4  5  2  0
  4 16  1  0
  5  6  1  0
  6  7  2  0
  7  8  1  0
  7 15  1  0
  8  9  1  0
  9 10  1  0
 10 11  1  0
 10 14  2  0
 11 12  1  0
 12 13  2  0
 13 14  1  0
 15 16  2  0
 17 18  1  0
 18 19  2  0
 18 23  1  0
 19 20  1  0
 20 21  2  0
 21 22  1  0
 22 23  2  0
M  END
