WPC0394_minimised.pdb
     RDKit          3D

 22 23  0  0  1  0  0  0  0  0999 V2000
   14.4470    1.1240   20.9220 C   0  0  0  0  0  0  0  0  0  0  0  0
   14.5900    1.6880   22.3460 C   0  0  2  0  0  0  0  0  0  0  0  0
   13.9120    0.7630   23.2940 N   0  0  0  0  0  0  0  0  0  0  0  0
   12.5600    0.5110   23.1230 C   0  0  0  0  0  0  0  0  0  0  0  0
   12.1520   -0.6100   22.3830 C   0  0  0  0  0  0  0  0  0  0  0  0
   10.7960   -0.8060   22.0860 C   0  0  0  0  0  0  0  0  0  0  0  0
    9.8410    0.1150   22.5410 C   0  0  0  0  0  0  0  0  0  0  0  0
    8.4930   -0.0030   22.1490 N   0  0  0  0  0  0  0  0  0  0  0  0
    8.0500    0.0810   20.8570 C   0  0  0  0  0  0  0  0  0  0  0  0
    8.7720    0.0870   19.8790 O   0  0  0  0  0  0  0  0  0  0  0  0
    6.6900    0.2060   20.7790 N   0  0  0  0  0  0  0  0  0  0  0  0
    5.9650    0.6540   19.6490 C   0  0  0  0  0  0  0  0  0  0  0  0
    4.9730    1.6230   19.8420 C   0  0  0  0  0  0  0  0  0  0  0  0
    4.3450    2.1490   18.7090 C   0  0  0  0  0  0  0  0  0  0  0  0
    4.7320    1.7070   17.4360 C   0  0  0  0  0  0  0  0  0  0  0  0
    5.6460    0.7300   17.2400 N   0  0  0  0  0  0  0  0  0  0  0  0
    6.2640    0.2360   18.3340 C   0  0  0  0  0  0  0  0  0  0  0  0
   10.2400    1.2120   23.3200 C   0  0  0  0  0  0  0  0  0  0  0  0
   11.6000    1.4110   23.6050 C   0  0  0  0  0  0  0  0  0  0  0  0
   14.1140    3.1710   22.4350 C   0  0  0  0  0  0  0  0  0  0  0  0
   13.0630    3.5970   22.0020 O   0  0  0  0  0  0  0  0  0  0  0  0
   14.9120    3.9850   23.1520 O   0  0  0  0  0  0  0  0  0  0  0  0
  2  1  1  6
  2 20  1  0
  2  3  1  0
  3  4  1  0
  4 19  2  0
  4  5  1  0
  5  6  2  0
  6  7  1  0
  7  8  1  0
  7 18  2  0
  8  9  1  0
  9 10  2  0
  9 11  1  0
 11 12  1  0
 12 13  2  0
 12 17  1  0
 13 14  1  0
 14 15  2  0
 15 16  1  0
 16 17  2  0
 18 19  1  0
 20 21  2  0
 20 22  1  0
M  END
