WPC0545_minimised.pdb
     RDKit          3D

 24 25  0  0  0  0  0  0  0  0999 V2000
    9.9120    4.3860   23.0500 C   0  0  0  0  0  0  0  0  0  0  0  0
   11.4120    4.7330   23.1690 C   0  0  0  0  0  0  0  0  0  0  0  0
   11.6190    5.6280   24.4080 C   0  0  0  0  0  0  0  0  0  0  0  0
   12.1860    3.4870   23.2330 N   0  0  0  0  0  0  0  0  0  0  0  0
   13.5420    3.3910   23.0180 C   0  0  0  0  0  0  0  0  0  0  0  0
   14.2980    4.3290   23.1920 O   0  0  0  0  0  0  0  0  0  0  0  0
   14.0420    2.0310   22.5330 C   0  0  0  0  0  0  0  0  0  0  0  0
   13.6570    0.8140   23.4110 C   0  0  0  0  0  0  0  0  0  0  0  0
   12.2280    0.3650   23.1810 C   0  0  0  0  0  0  0  0  0  0  0  0
   11.9280   -0.4010   22.0460 C   0  0  0  0  0  0  0  0  0  0  0  0
   10.5950   -0.7010   21.7460 C   0  0  0  0  0  0  0  0  0  0  0  0
    9.5580   -0.2130   22.5540 C   0  0  0  0  0  0  0  0  0  0  0  0
    8.2230   -0.2950   22.1110 N   0  0  0  0  0  0  0  0  0  0  0  0
    7.8150    0.0720   20.8570 C   0  0  0  0  0  0  0  0  0  0  0  0
    8.5690    0.3670   19.9500 O   0  0  0  0  0  0  0  0  0  0  0  0
    6.4570    0.1110   20.7170 N   0  0  0  0  0  0  0  0  0  0  0  0
    5.7920    0.6470   19.5900 C   0  0  0  0  0  0  0  0  0  0  0  0
    4.8110    1.6270   19.7820 C   0  0  0  0  0  0  0  0  0  0  0  0
    4.2850    2.2500   18.6430 C   0  0  0  0  0  0  0  0  0  0  0  0
    4.7620    1.8940   17.3740 C   0  0  0  0  0  0  0  0  0  0  0  0
    5.6670    0.9090   17.1750 N   0  0  0  0  0  0  0  0  0  0  0  0
    6.1790    0.3160   18.2720 C   0  0  0  0  0  0  0  0  0  0  0  0
    9.8600    0.4700   23.7390 C   0  0  0  0  0  0  0  0  0  0  0  0
   11.1960    0.7450   24.0620 C   0  0  0  0  0  0  0  0  0  0  0  0
  1  2  1  0
  2  3  1  0
  2  4  1  0
  4  5  1  0
  5  6  2  0
  5  7  1  0
  7  8  1  0
  8  9  1  0
  9 24  2  0
  9 10  1  0
 10 11  2  0
 11 12  1  0
 12 13  1  0
 12 23  2  0
 13 14  1  0
 14 15  2  0
 14 16  1  0
 16 17  1  0
 17 18  2  0
 17 22  1  0
 18 19  1  0
 19 20  2  0
 20 21  1  0
 21 22  2  0
 23 24  1  0
M  END
