WPC0880_minimised.pdb
     RDKit          3D

 21 22  0  0  1  0  0  0  0  0999 V2000
   13.8880   -2.0110   23.6560 C   0  0  0  0  0  0  0  0  0  0  0  0
   13.1670   -0.6510   23.7990 C   0  0  1  0  0  0  0  0  0  0  0  0
   13.7960    0.4070   22.8900 C   0  0  0  0  0  0  0  0  0  0  0  0
   14.2370    0.1860   21.7820 O   0  0  0  0  0  0  0  0  0  0  0  0
   13.5750    1.6700   23.2530 O   0  0  0  0  0  0  0  0  0  0  0  0
   11.6860   -0.7480   23.4600 C   0  0  0  0  0  0  0  0  0  0  0  0
   11.2940   -1.2980   22.2290 C   0  0  0  0  0  0  0  0  0  0  0  0
    9.9570   -1.2370   21.8290 C   0  0  0  0  0  0  0  0  0  0  0  0
    9.0070   -0.5940   22.6340 C   0  0  0  0  0  0  0  0  0  0  0  0
    7.7100   -0.3630   22.1330 N   0  0  0  0  0  0  0  0  0  0  0  0
    7.4330    0.1160   20.8810 C   0  0  0  0  0  0  0  0  0  0  0  0
    8.2650    0.3480   20.0230 O   0  0  0  0  0  0  0  0  0  0  0  0
    6.0960    0.3050   20.6790 N   0  0  0  0  0  0  0  0  0  0  0  0
    5.5110    0.8520   19.5140 C   0  0  0  0  0  0  0  0  0  0  0  0
    4.5160    1.8270   19.6450 C   0  0  0  0  0  0  0  0  0  0  0  0
    4.0410    2.4280   18.4740 C   0  0  0  0  0  0  0  0  0  0  0  0
    4.5800    2.0550   17.2350 C   0  0  0  0  0  0  0  0  0  0  0  0
    5.5000    1.0740   17.0930 N   0  0  0  0  0  0  0  0  0  0  0  0
    5.9620    0.5010   18.2220 C   0  0  0  0  0  0  0  0  0  0  0  0
    9.3780   -0.0990   23.8920 C   0  0  0  0  0  0  0  0  0  0  0  0
   10.7160   -0.1800   24.3090 C   0  0  0  0  0  0  0  0  0  0  0  0
  2  1  1  6
  2  3  1  0
  2  6  1  0
  3  4  2  0
  3  5  1  0
  6 21  2  0
  6  7  1  0
  7  8  2  0
  8  9  1  0
  9 10  1  0
  9 20  2  0
 10 11  1  0
 11 12  2  0
 11 13  1  0
 13 14  1  0
 14 15  2  0
 14 19  1  0
 15 16  1  0
 16 17  2  0
 17 18  1  0
 18 19  2  0
 20 21  1  0
M  END
