WPC0783_minimised.pdb
     RDKit          3D

 21 22  0  0  0  0  0  0  0  0999 V2000
   14.4610    4.1340   23.2910 O   0  0  0  0  0  0  0  0  0  0  0  0
   13.7230    3.2580   22.8810 C   0  0  0  0  0  0  0  0  0  0  0  0
   12.3940    3.4220   22.9040 O   0  0  0  0  0  0  0  0  0  0  0  0
   14.1950    1.8450   22.5230 C   0  0  0  0  0  0  0  0  0  0  0  0
   13.6790    0.7100   23.4330 C   0  0  0  0  0  0  0  0  0  0  0  0
   12.2230    0.3790   23.1770 C   0  0  0  0  0  0  0  0  0  0  0  0
   11.8840   -0.4480   22.0950 C   0  0  0  0  0  0  0  0  0  0  0  0
   10.5360   -0.6900   21.8030 C   0  0  0  0  0  0  0  0  0  0  0  0
    9.5250   -0.0880   22.5650 C   0  0  0  0  0  0  0  0  0  0  0  0
    8.1830   -0.1680   22.1410 N   0  0  0  0  0  0  0  0  0  0  0  0
    7.7630    0.1230   20.8710 C   0  0  0  0  0  0  0  0  0  0  0  0
    8.5120    0.3490   19.9390 O   0  0  0  0  0  0  0  0  0  0  0  0
    6.4030    0.1700   20.7460 N   0  0  0  0  0  0  0  0  0  0  0  0
    5.7190    0.6680   19.6120 C   0  0  0  0  0  0  0  0  0  0  0  0
    4.7310    1.6430   19.7930 C   0  0  0  0  0  0  0  0  0  0  0  0
    4.1800    2.2300   18.6480 C   0  0  0  0  0  0  0  0  0  0  0  0
    4.6350    1.8370   17.3810 C   0  0  0  0  0  0  0  0  0  0  0  0
    5.5460    0.8550   17.1940 N   0  0  0  0  0  0  0  0  0  0  0  0
    6.0860    0.3000   18.2980 C   0  0  0  0  0  0  0  0  0  0  0  0
    9.8600    0.6810   23.6870 C   0  0  0  0  0  0  0  0  0  0  0  0
   11.2090    0.9020   24.0020 C   0  0  0  0  0  0  0  0  0  0  0  0
  1  2  2  0
  2  3  1  0
  2  4  1  0
  4  5  1  0
  5  6  1  0
  6 21  2  0
  6  7  1  0
  7  8  2  0
  8  9  1  0
  9 10  1  0
  9 20  2  0
 10 11  1  0
 11 12  2  0
 11 13  1  0
 13 14  1  0
 14 15  2  0
 14 19  1  0
 15 16  1  0
 16 17  2  0
 17 18  1  0
 18 19  2  0
 20 21  1  0
M  END
