WPC0724_minimised.pdb
     RDKit          3D

 20 21  0  0  0  0  0  0  0  0999 V2000
   11.9520    3.6350   22.5120 N   0  0  0  0  0  0  0  0  0  0  0  0
   13.0970    3.2010   23.1080 C   0  0  0  0  0  0  0  0  0  0  0  0
   13.9470    4.0180   23.3960 O   0  0  0  0  0  0  0  0  0  0  0  0
   13.2180    1.6920   23.3970 C   0  0  0  0  0  0  0  0  0  0  0  0
   11.9390    0.9070   23.1650 C   0  0  0  0  0  0  0  0  0  0  0  0
   11.8500    0.0090   22.0920 C   0  0  0  0  0  0  0  0  0  0  0  0
   10.6170   -0.5770   21.7810 C   0  0  0  0  0  0  0  0  0  0  0  0
    9.4730   -0.2500   22.5250 C   0  0  0  0  0  0  0  0  0  0  0  0
    8.1900   -0.5750   22.0390 N   0  0  0  0  0  0  0  0  0  0  0  0
    7.7660   -0.2390   20.7810 C   0  0  0  0  0  0  0  0  0  0  0  0
    8.5040    0.0950   19.8730 O   0  0  0  0  0  0  0  0  0  0  0  0
    6.4060   -0.2340   20.6500 N   0  0  0  0  0  0  0  0  0  0  0  0
    5.7310    0.3760   19.5660 C   0  0  0  0  0  0  0  0  0  0  0  0
    4.7900    1.3810   19.8260 C   0  0  0  0  0  0  0  0  0  0  0  0
    4.2640    2.0780   18.7310 C   0  0  0  0  0  0  0  0  0  0  0  0
    4.6970    1.7630   17.4340 C   0  0  0  0  0  0  0  0  0  0  0  0
    5.5730    0.7660   17.1730 N   0  0  0  0  0  0  0  0  0  0  0  0
    6.0870    0.1030   18.2270 C   0  0  0  0  0  0  0  0  0  0  0  0
    9.5850    0.5570   23.6640 C   0  0  0  0  0  0  0  0  0  0  0  0
   10.8220    1.1280   23.9930 C   0  0  0  0  0  0  0  0  0  0  0  0
  1  2  1  0
  2  3  2  0
  2  4  1  0
  4  5  1  0
  5 20  2  0
  5  6  1  0
  6  7  2  0
  7  8  1  0
  8  9  1  0
  8 19  2  0
  9 10  1  0
 10 11  2  0
 10 12  1  0
 12 13  1  0
 13 14  2  0
 13 18  1  0
 14 15  1  0
 15 16  2  0
 16 17  1  0
 17 18  2  0
 19 20  1  0
M  END
