WPC0469_minimised.pdb
     RDKit          3D

 21 23  0  0  0  0  0  0  0  0999 V2000
    8.4210    0.1300   19.8270 O   0  0  0  0  0  0  0  0  0  0  0  0
    7.6660   -0.1560   20.7370 C   0  0  0  0  0  0  0  0  0  0  0  0
    8.0580   -0.5060   22.0020 N   0  0  0  0  0  0  0  0  0  0  0  0
    9.3490   -0.2930   22.5260 C   0  0  0  0  0  0  0  0  0  0  0  0
   10.4930   -0.5670   21.7600 C   0  0  0  0  0  0  0  0  0  0  0  0
   11.7520   -0.1280   22.1860 C   0  0  0  0  0  0  0  0  0  0  0  0
   11.8720    0.5560   23.4040 C   0  0  0  0  0  0  0  0  0  0  0  0
   13.2080    1.1270   23.8190 C   0  0  0  0  0  0  0  0  0  0  0  0
   13.3750    2.5310   23.4110 N   0  0  0  0  0  0  0  0  0  0  0  0
   12.3850    3.4990   23.8250 C   0  0  0  0  0  0  0  0  0  0  0  0
   12.8060    4.9430   23.7260 C   0  0  0  0  0  0  0  0  0  0  0  0
   11.7780    4.3910   22.7760 C   0  0  0  0  0  0  0  0  0  0  0  0
   10.7440    0.7240   24.2290 C   0  0  0  0  0  0  0  0  0  0  0  0
    9.4800    0.3140   23.7820 C   0  0  0  0  0  0  0  0  0  0  0  0
    6.3090   -0.0980   20.6000 N   0  0  0  0  0  0  0  0  0  0  0  0
    5.6510    0.5010   19.5020 C   0  0  0  0  0  0  0  0  0  0  0  0
    4.7050    1.5060   19.7400 C   0  0  0  0  0  0  0  0  0  0  0  0
    4.1850    2.1830   18.6300 C   0  0  0  0  0  0  0  0  0  0  0  0
    4.6320    1.8500   17.3430 C   0  0  0  0  0  0  0  0  0  0  0  0
    5.5120    0.8520   17.1030 N   0  0  0  0  0  0  0  0  0  0  0  0
    6.0190    0.2070   18.1720 C   0  0  0  0  0  0  0  0  0  0  0  0
  1  2  2  0
  2  3  1  0
  2 15  1  0
  3  4  1  0
  4  5  2  0
  4 14  1  0
  5  6  1  0
  6  7  2  0
  7  8  1  0
  7 13  1  0
  8  9  1  0
  9 10  1  0
 10 11  1  0
 10 12  1  0
 11 12  1  0
 13 14  2  0
 15 16  1  0
 16 17  2  0
 16 21  1  0
 17 18  1  0
 18 19  2  0
 19 20  1  0
 20 21  2  0
M  END
