WPC0155_minimised.pdb
     RDKit          3D

 20 21  0  0  0  0  0  0  0  0999 V2000
    3.9700    3.7440   22.8450 C   0  0  0  0  0  0  0  0  0  0  0  0
    4.4430    2.4900   22.1420 C   0  0  0  0  0  0  0  0  0  0  0  0
    4.5560    1.4110   22.7060 O   0  0  0  0  0  0  0  0  0  0  0  0
    4.7020    2.6800   20.8150 N   0  0  0  0  0  0  0  0  0  0  0  0
    4.9510    1.7480   19.7900 C   0  0  0  0  0  0  0  0  0  0  0  0
    4.3250    2.0090   18.5750 C   0  0  0  0  0  0  0  0  0  0  0  0
    4.7070    1.3010   17.4410 C   0  0  0  0  0  0  0  0  0  0  0  0
    5.5910    0.2860   17.4640 N   0  0  0  0  0  0  0  0  0  0  0  0
    6.1700    0.0050   18.6510 C   0  0  0  0  0  0  0  0  0  0  0  0
    5.9160    0.7280   19.8400 C   0  0  0  0  0  0  0  0  0  0  0  0
    6.7060    0.5400   21.0090 N   0  0  0  0  0  0  0  0  0  0  0  0
    8.0710    0.3910   21.0060 C   0  0  0  0  0  0  0  0  0  0  0  0
    8.6960    0.2300   19.9790 O   0  0  0  0  0  0  0  0  0  0  0  0
    8.6740    0.4700   22.2320 N   0  0  0  0  0  0  0  0  0  0  0  0
   10.0720    0.4670   22.4330 C   0  0  0  0  0  0  0  0  0  0  0  0
   10.8660   -0.5820   21.9360 C   0  0  0  0  0  0  0  0  0  0  0  0
   12.2620   -0.5410   22.0760 C   0  0  0  0  0  0  0  0  0  0  0  0
   12.8680    0.5510   22.7180 C   0  0  0  0  0  0  0  0  0  0  0  0
   12.0760    1.5990   23.2140 C   0  0  0  0  0  0  0  0  0  0  0  0
   10.6800    1.5540   23.0780 C   0  0  0  0  0  0  0  0  0  0  0  0
  1  2  1  0
  2  3  2  0
  2  4  1  0
  4  5  1  0
  5  6  2  0
  5 10  1  0
  6  7  1  0
  7  8  2  0
  8  9  1  0
  9 10  2  0
 10 11  1  0
 11 12  1  0
 12 13  2  0
 12 14  1  0
 14 15  1  0
 15 16  2  0
 15 20  1  0
 16 17  1  0
 17 18  2  0
 18 19  1  0
 19 20  2  0
M  END
