WPC0820_minimised.pdb
     RDKit          3D

 22 23  0  0  0  0  0  0  0  0999 V2000
   14.1890    6.2610   22.0820 N   0  0  0  0  0  0  0  0  0  0  0  0
   13.7820    4.9030   22.1060 N   0  0  0  0  0  0  0  0  0  0  0  0
   13.0210    4.3870   23.1330 C   0  0  0  0  0  0  0  0  0  0  0  0
   12.4810    5.3390   24.3930 S   0  0  0  0  0  0  0  0  0  0  0  0
   12.8860    3.0250   23.0450 N   0  0  0  0  0  0  0  0  0  0  0  0
   12.2970    2.1640   24.0730 C   0  0  0  0  0  0  0  0  0  0  0  0
   11.1590    1.3210   23.5570 C   0  0  0  0  0  0  0  0  0  0  0  0
   11.3640    0.3760   22.5360 C   0  0  0  0  0  0  0  0  0  0  0  0
   10.2710   -0.3320   22.0160 C   0  0  0  0  0  0  0  0  0  0  0  0
    8.9830   -0.0930   22.5200 C   0  0  0  0  0  0  0  0  0  0  0  0
    7.8420   -0.6010   21.8770 N   0  0  0  0  0  0  0  0  0  0  0  0
    7.5600   -0.3280   20.5700 C   0  0  0  0  0  0  0  0  0  0  0  0
    8.3860   -0.0670   19.7160 O   0  0  0  0  0  0  0  0  0  0  0  0
    6.2140   -0.2690   20.3490 N   0  0  0  0  0  0  0  0  0  0  0  0
    5.6260    0.4290   19.2730 C   0  0  0  0  0  0  0  0  0  0  0  0
    4.6800    1.4250   19.5450 C   0  0  0  0  0  0  0  0  0  0  0  0
    4.2250    2.2000   18.4710 C   0  0  0  0  0  0  0  0  0  0  0  0
    4.7420    1.9750   17.1870 C   0  0  0  0  0  0  0  0  0  0  0  0
    5.6330    0.9950   16.9150 N   0  0  0  0  0  0  0  0  0  0  0  0
    6.0700    0.2490   17.9480 C   0  0  0  0  0  0  0  0  0  0  0  0
    8.7910    0.7970   23.5850 C   0  0  0  0  0  0  0  0  0  0  0  0
    9.8810    1.5020   24.1070 C   0  0  0  0  0  0  0  0  0  0  0  0
  1  2  1  0
  2  3  1  0
  3  4  2  0
  3  5  1  0
  5  6  1  0
  6  7  1  0
  7 22  2  0
  7  8  1  0
  8  9  2  0
  9 10  1  0
 10 11  1  0
 10 21  2  0
 11 12  1  0
 12 13  2  0
 12 14  1  0
 14 15  1  0
 15 16  2  0
 15 20  1  0
 16 17  1  0
 17 18  2  0
 18 19  1  0
 19 20  2  0
 21 22  1  0
M  END
