WPC0511_minimised.pdb
     RDKit          3D

 21 22  0  0  1  0  0  0  0  0999 V2000
   13.2130    3.4040   22.8920 N   0  0  0  0  0  0  0  0  0  0  0  0
   13.6020    2.3250   22.7740 C   0  0  0  0  0  0  0  0  0  0  0  0
   14.1340    0.9640   22.6660 C   0  0  0  0  0  0  0  0  0  0  0  0
   13.5040   -0.0210   23.6730 C   0  0  2  0  0  0  0  0  0  0  0  0
   14.2170   -1.2500   23.6220 O   0  0  0  0  0  0  0  0  0  0  0  0
   12.0360   -0.2620   23.3610 C   0  0  0  0  0  0  0  0  0  0  0  0
   11.6660   -1.1070   22.3000 C   0  0  0  0  0  0  0  0  0  0  0  0
   10.3200   -1.2190   21.9270 C   0  0  0  0  0  0  0  0  0  0  0  0
    9.3390   -0.4780   22.6010 C   0  0  0  0  0  0  0  0  0  0  0  0
    8.0200   -0.4370   22.1110 N   0  0  0  0  0  0  0  0  0  0  0  0
    7.6920   -0.1030   20.8260 C   0  0  0  0  0  0  0  0  0  0  0  0
    8.4940    0.0360   19.9230 O   0  0  0  0  0  0  0  0  0  0  0  0
    6.3500    0.0940   20.6610 N   0  0  0  0  0  0  0  0  0  0  0  0
    5.7380    0.6610   19.5190 C   0  0  0  0  0  0  0  0  0  0  0  0
    4.7600    1.6450   19.6990 C   0  0  0  0  0  0  0  0  0  0  0  0
    4.2550    2.2760   18.5570 C   0  0  0  0  0  0  0  0  0  0  0  0
    4.7520    1.9260   17.2950 C   0  0  0  0  0  0  0  0  0  0  0  0
    5.6570    0.9390   17.1060 N   0  0  0  0  0  0  0  0  0  0  0  0
    6.1470    0.3340   18.2070 C   0  0  0  0  0  0  0  0  0  0  0  0
    9.6930    0.3220   23.6950 C   0  0  0  0  0  0  0  0  0  0  0  0
   11.0390    0.4300   24.0740 C   0  0  0  0  0  0  0  0  0  0  0  0
  1  2  3  0
  2  3  1  0
  3  4  1  0
  4  5  1  6
  4  6  1  0
  6 21  2  0
  6  7  1  0
  7  8  2  0
  8  9  1  0
  9 10  1  0
  9 20  2  0
 10 11  1  0
 11 12  2  0
 11 13  1  0
 13 14  1  0
 14 15  2  0
 14 19  1  0
 15 16  1  0
 16 17  2  0
 17 18  1  0
 18 19  2  0
 20 21  1  0
M  END
