WPC0179_minimised.pdb
     RDKit          3D

 21 22  0  0  0  0  0  0  0  0999 V2000
    6.4920    0.9090   23.9310 C   0  0  0  0  0  0  0  0  0  0  0  0
    5.4910    1.7820   22.7640 S   0  0  0  0  0  0  0  0  0  0  0  0
    4.2660    2.0950   23.4830 O   0  0  0  0  0  0  0  0  0  0  0  0
    6.3510    2.7830   22.1840 O   0  0  0  0  0  0  0  0  0  0  0  0
    5.2320    0.5000   21.8040 O   0  0  0  0  0  0  0  0  0  0  0  0
    5.5790    0.5240   20.4840 C   0  0  0  0  0  0  0  0  0  0  0  0
    4.7840    1.1890   19.5450 C   0  0  0  0  0  0  0  0  0  0  0  0
    5.1250    1.1180   18.1870 C   0  0  0  0  0  0  0  0  0  0  0  0
    6.1810    0.4060   17.7350 N   0  0  0  0  0  0  0  0  0  0  0  0
    6.9770   -0.1780   18.6540 C   0  0  0  0  0  0  0  0  0  0  0  0
    6.7070   -0.1760   20.0370 C   0  0  0  0  0  0  0  0  0  0  0  0
    7.6410   -0.7270   20.9620 N   0  0  0  0  0  0  0  0  0  0  0  0
    8.8640   -0.1520   21.1940 C   0  0  0  0  0  0  0  0  0  0  0  0
    9.1980    0.8620   20.6240 O   0  0  0  0  0  0  0  0  0  0  0  0
    9.6740   -0.8040   22.0840 N   0  0  0  0  0  0  0  0  0  0  0  0
   11.0110   -0.4290   22.3380 C   0  0  0  0  0  0  0  0  0  0  0  0
   12.0400   -1.3370   22.0570 C   0  0  0  0  0  0  0  0  0  0  0  0
   13.3830   -0.9440   22.1780 C   0  0  0  0  0  0  0  0  0  0  0  0
   13.6950    0.3500   22.6250 C   0  0  0  0  0  0  0  0  0  0  0  0
   12.6650    1.2520   22.9360 C   0  0  0  0  0  0  0  0  0  0  0  0
   11.3240    0.8660   22.7830 C   0  0  0  0  0  0  0  0  0  0  0  0
  1  2  1  0
  2  3  2  0
  2  4  2  0
  2  5  1  0
  5  6  1  0
  6  7  2  0
  6 11  1  0
  7  8  1  0
  8  9  2  0
  9 10  1  0
 10 11  2  0
 11 12  1  0
 12 13  1  0
 13 14  2  0
 13 15  1  0
 15 16  1  0
 16 17  2  0
 16 21  1  0
 17 18  1  0
 18 19  2  0
 19 20  1  0
 20 21  2  0
M  END
