WPC0965_minimised.pdb
     RDKit          3D

 21 22  0  0  0  0  0  0  0  0999 V2000
   11.8760    5.1070   22.7350 C   0  0  0  0  0  0  0  0  0  0  0  0
   12.1390    3.6770   22.8810 N   0  0  0  0  0  0  0  0  0  0  0  0
   13.3780    3.1710   23.1910 C   0  0  0  0  0  0  0  0  0  0  0  0
   14.3190    3.9210   23.3870 O   0  0  0  0  0  0  0  0  0  0  0  0
   13.4840    1.6390   23.3240 C   0  0  0  0  0  0  0  0  0  0  0  0
   12.1680    0.8970   23.1380 C   0  0  0  0  0  0  0  0  0  0  0  0
   11.9950    0.0610   22.0260 C   0  0  0  0  0  0  0  0  0  0  0  0
   10.7320   -0.4770   21.7520 C   0  0  0  0  0  0  0  0  0  0  0  0
    9.6340   -0.1580   22.5660 C   0  0  0  0  0  0  0  0  0  0  0  0
    8.3200   -0.4370   22.1300 N   0  0  0  0  0  0  0  0  0  0  0  0
    7.8520   -0.1150   20.8820 C   0  0  0  0  0  0  0  0  0  0  0  0
    8.5600    0.2160   19.9510 O   0  0  0  0  0  0  0  0  0  0  0  0
    6.4900   -0.1380   20.7750 N   0  0  0  0  0  0  0  0  0  0  0  0
    5.7870    0.4160   19.6780 C   0  0  0  0  0  0  0  0  0  0  0  0
    4.8440    1.4250   19.9100 C   0  0  0  0  0  0  0  0  0  0  0  0
    4.2940    2.0710   18.7950 C   0  0  0  0  0  0  0  0  0  0  0  0
    4.7040    1.7010   17.5060 C   0  0  0  0  0  0  0  0  0  0  0  0
    5.5780    0.6960   17.2710 N   0  0  0  0  0  0  0  0  0  0  0  0
    6.1190    0.0850   18.3450 C   0  0  0  0  0  0  0  0  0  0  0  0
    9.8300    0.5800   23.7410 C   0  0  0  0  0  0  0  0  0  0  0  0
   11.1010    1.0930   24.0370 C   0  0  0  0  0  0  0  0  0  0  0  0
  1  2  1  0
  2  3  1  0
  3  4  2  0
  3  5  1  0
  5  6  1  0
  6 21  2  0
  6  7  1  0
  7  8  2  0
  8  9  1  0
  9 10  1  0
  9 20  2  0
 10 11  1  0
 11 12  2  0
 11 13  1  0
 13 14  1  0
 14 15  2  0
 14 19  1  0
 15 16  1  0
 16 17  2  0
 17 18  1  0
 18 19  2  0
 20 21  1  0
M  END
