WPC0718_minimised.pdb
     RDKit          3D

 23 24  0  0  0  0  0  0  0  0999 V2000
   14.0580    6.2790   21.7710 N   0  0  0  0  0  0  0  0  0  0  0  0
   14.0880    5.1520   21.9960 C   0  0  0  0  0  0  0  0  0  0  0  0
   14.2040    3.8520   22.1930 N   0  0  0  0  0  0  0  0  0  0  0  0
   13.3990    3.1150   23.0040 C   0  0  0  0  0  0  0  0  0  0  0  0
   12.5640    3.5460   23.7780 O   0  0  0  0  0  0  0  0  0  0  0  0
   13.9040    1.8560   22.9790 O   0  0  0  0  0  0  0  0  0  0  0  0
   13.3790    0.8090   23.7970 C   0  0  0  0  0  0  0  0  0  0  0  0
   11.9840    0.4180   23.3620 C   0  0  0  0  0  0  0  0  0  0  0  0
   11.8010   -0.4570   22.2780 C   0  0  0  0  0  0  0  0  0  0  0  0
   10.5030   -0.7810   21.8590 C   0  0  0  0  0  0  0  0  0  0  0  0
    9.3930   -0.2270   22.5140 C   0  0  0  0  0  0  0  0  0  0  0  0
    8.0930   -0.4120   22.0080 N   0  0  0  0  0  0  0  0  0  0  0  0
    7.7270   -0.1310   20.7220 C   0  0  0  0  0  0  0  0  0  0  0  0
    8.5080    0.0750   19.8130 O   0  0  0  0  0  0  0  0  0  0  0  0
    6.3720   -0.0450   20.5740 N   0  0  0  0  0  0  0  0  0  0  0  0
    5.7230    0.5420   19.4650 C   0  0  0  0  0  0  0  0  0  0  0  0
    4.7490    1.5210   19.6960 C   0  0  0  0  0  0  0  0  0  0  0  0
    4.2250    2.1910   18.5850 C   0  0  0  0  0  0  0  0  0  0  0  0
    4.7000    1.8830   17.3030 C   0  0  0  0  0  0  0  0  0  0  0  0
    5.6030    0.9040   17.0660 N   0  0  0  0  0  0  0  0  0  0  0  0
    6.1110    0.2620   18.1370 C   0  0  0  0  0  0  0  0  0  0  0  0
    9.5750    0.6070   23.6240 C   0  0  0  0  0  0  0  0  0  0  0  0
   10.8700    0.9280   24.0510 C   0  0  0  0  0  0  0  0  0  0  0  0
  1  2  3  0
  2  3  1  0
  3  4  1  0
  4  5  2  0
  4  6  1  0
  6  7  1  0
  7  8  1  0
  8 23  2  0
  8  9  1  0
  9 10  2  0
 10 11  1  0
 11 12  1  0
 11 22  2  0
 12 13  1  0
 13 14  2  0
 13 15  1  0
 15 16  1  0
 16 17  2  0
 16 21  1  0
 17 18  1  0
 18 19  2  0
 19 20  1  0
 20 21  2  0
 22 23  1  0
M  END
