WPC0588_minimised.pdb
     RDKit          3D

 24 25  0  0  0  0  0  0  0  0999 V2000
   10.5310    5.7300   24.5760 O   0  0  0  0  0  0  0  0  0  0  0  0
   10.3710    5.3010   23.4500 C   0  0  0  0  0  0  0  0  0  0  0  0
    9.4630    5.8450   22.6260 O   0  0  0  0  0  0  0  0  0  0  0  0
   11.2340    4.2060   22.8250 C   0  0  0  0  0  0  0  0  0  0  0  0
   12.3530    3.6910   23.7660 C   0  0  0  0  0  0  0  0  0  0  0  0
   13.2040    2.5850   23.1360 C   0  0  0  0  0  0  0  0  0  0  0  0
   13.9290    2.8420   22.1960 O   0  0  0  0  0  0  0  0  0  0  0  0
   13.1090    1.1670   23.7150 C   0  0  0  0  0  0  0  0  0  0  0  0
   11.7590    0.5340   23.4390 C   0  0  0  0  0  0  0  0  0  0  0  0
   11.6150   -0.3490   22.3580 C   0  0  0  0  0  0  0  0  0  0  0  0
   10.3380   -0.7610   21.9610 C   0  0  0  0  0  0  0  0  0  0  0  0
    9.2070   -0.2980   22.6490 C   0  0  0  0  0  0  0  0  0  0  0  0
    7.9240   -0.4730   22.1010 N   0  0  0  0  0  0  0  0  0  0  0  0
    7.5910   -0.0940   20.8290 C   0  0  0  0  0  0  0  0  0  0  0  0
    8.3910    0.2170   19.9660 O   0  0  0  0  0  0  0  0  0  0  0  0
    6.2420   -0.0420   20.6370 N   0  0  0  0  0  0  0  0  0  0  0  0
    5.6140    0.5440   19.5160 C   0  0  0  0  0  0  0  0  0  0  0  0
    4.6430    1.5310   19.7230 C   0  0  0  0  0  0  0  0  0  0  0  0
    4.1300    2.1830   18.5960 C   0  0  0  0  0  0  0  0  0  0  0  0
    4.6050    1.8390   17.3220 C   0  0  0  0  0  0  0  0  0  0  0  0
    5.5120    0.8580   17.1110 N   0  0  0  0  0  0  0  0  0  0  0  0
    6.0170    0.2420   18.1980 C   0  0  0  0  0  0  0  0  0  0  0  0
    9.3570    0.4690   23.8120 C   0  0  0  0  0  0  0  0  0  0  0  0
   10.6360    0.8740   24.2170 C   0  0  0  0  0  0  0  0  0  0  0  0
  1  2  2  0
  2  3  1  0
  2  4  1  0
  4  5  1  0
  5  6  1  0
  6  7  2  0
  6  8  1  0
  8  9  1  0
  9 24  2  0
  9 10  1  0
 10 11  2  0
 11 12  1  0
 12 13  1  0
 12 23  2  0
 13 14  1  0
 14 15  2  0
 14 16  1  0
 16 17  1  0
 17 18  2  0
 17 22  1  0
 18 19  1  0
 19 20  2  0
 20 21  1  0
 21 22  2  0
 23 24  1  0
M  END
