WPC0877_minimised.pdb
     RDKit          3D

 23 25  0  0  0  0  0  0  0  0999 V2000
    8.6030    0.2540   19.9270 O   0  0  0  0  0  0  0  0  0  0  0  0
    7.8920   -0.0140   20.8770 C   0  0  0  0  0  0  0  0  0  0  0  0
    8.3620   -0.2090   22.1480 N   0  0  0  0  0  0  0  0  0  0  0  0
    9.6670    0.1540   22.5430 C   0  0  0  0  0  0  0  0  0  0  0  0
   10.7790   -0.3450   21.8430 C   0  0  0  0  0  0  0  0  0  0  0  0
   12.0480    0.2090   22.0620 C   0  0  0  0  0  0  0  0  0  0  0  0
   12.2000    1.2590   22.9780 C   0  0  0  0  0  0  0  0  0  0  0  0
   13.7740    2.0590   23.1070 S   0  0  0  0  0  0  0  0  0  0  0  0
   13.5050    3.7750   22.4610 C   0  0  0  0  0  0  0  0  0  0  0  0
   12.5400    4.6080   23.2530 C   0  0  0  0  0  0  0  0  0  0  0  0
   11.2650    4.9270   22.8570 N   0  0  0  0  0  0  0  0  0  0  0  0
   10.7360    5.7650   23.8170 C   0  0  0  0  0  0  0  0  0  0  0  0
   11.7340    5.9340   24.7440 C   0  0  0  0  0  0  0  0  0  0  0  0
   12.8450    5.2170   24.3800 N   0  0  0  0  0  0  0  0  0  0  0  0
   11.1110    1.6860   23.7540 C   0  0  0  0  0  0  0  0  0  0  0  0
    9.8390    1.1360   23.5310 C   0  0  0  0  0  0  0  0  0  0  0  0
    6.5290   -0.0690   20.7710 N   0  0  0  0  0  0  0  0  0  0  0  0
    5.8170    0.4540   19.6640 C   0  0  0  0  0  0  0  0  0  0  0  0
    4.8540    1.4450   19.8880 C   0  0  0  0  0  0  0  0  0  0  0  0
    4.3020    2.0810   18.7690 C   0  0  0  0  0  0  0  0  0  0  0  0
    4.7350    1.7220   17.4840 C   0  0  0  0  0  0  0  0  0  0  0  0
    5.6250    0.7300   17.2560 N   0  0  0  0  0  0  0  0  0  0  0  0
    6.1630    0.1240   18.3350 C   0  0  0  0  0  0  0  0  0  0  0  0
  1  2  2  0
  2  3  1  0
  2 17  1  0
  3  4  1  0
  4  5  2  0
  4 16  1  0
  5  6  1  0
  6  7  2  0
  7  8  1  0
  7 15  1  0
  8  9  1  0
  9 10  1  0
 10 11  1  0
 10 14  2  0
 11 12  1  0
 12 13  2  0
 13 14  1  0
 15 16  2  0
 17 18  1  0
 18 19  2  0
 18 23  1  0
 19 20  1  0
 20 21  2  0
 21 22  1  0
 22 23  2  0
M  END
