WPC0509_minimised.pdb
     RDKit          3D

 22 23  0  0  0  0  0  0  0  0999 V2000
   13.5610    5.5040   22.0330 C   0  0  0  0  0  0  0  0  0  0  0  0
   13.9130    4.1120   22.2890 N   0  0  0  0  0  0  0  0  0  0  0  0
   13.1900    3.3160   23.1330 C   0  0  0  0  0  0  0  0  0  0  0  0
   11.9770    3.8870   24.1230 S   0  0  0  0  0  0  0  0  0  0  0  0
   13.6900    2.0420   23.1170 N   0  0  0  0  0  0  0  0  0  0  0  0
   13.2020    0.9130   23.9040 C   0  0  0  0  0  0  0  0  0  0  0  0
   11.8570    0.4030   23.4440 C   0  0  0  0  0  0  0  0  0  0  0  0
   11.7540   -0.4100   22.3030 C   0  0  0  0  0  0  0  0  0  0  0  0
   10.4890   -0.7980   21.8410 C   0  0  0  0  0  0  0  0  0  0  0  0
    9.3310   -0.3640   22.5060 C   0  0  0  0  0  0  0  0  0  0  0  0
    8.0550   -0.5690   21.9490 N   0  0  0  0  0  0  0  0  0  0  0  0
    7.7150   -0.2330   20.6680 C   0  0  0  0  0  0  0  0  0  0  0  0
    8.5060   -0.0060   19.7730 O   0  0  0  0  0  0  0  0  0  0  0  0
    6.3640   -0.1140   20.5100 N   0  0  0  0  0  0  0  0  0  0  0  0
    5.7340    0.5210   19.4160 C   0  0  0  0  0  0  0  0  0  0  0  0
    4.7730    1.5080   19.6650 C   0  0  0  0  0  0  0  0  0  0  0  0
    4.2600    2.2090   18.5670 C   0  0  0  0  0  0  0  0  0  0  0  0
    4.7370    1.9250   17.2800 C   0  0  0  0  0  0  0  0  0  0  0  0
    5.6330    0.9430   17.0260 N   0  0  0  0  0  0  0  0  0  0  0  0
    6.1270    0.2690   18.0840 C   0  0  0  0  0  0  0  0  0  0  0  0
    9.4380    0.3910   23.6800 C   0  0  0  0  0  0  0  0  0  0  0  0
   10.7000    0.7710   24.1530 C   0  0  0  0  0  0  0  0  0  0  0  0
  1  2  1  0
  2  3  1  0
  3  4  2  0
  3  5  1  0
  5  6  1  0
  6  7  1  0
  7 22  2  0
  7  8  1  0
  8  9  2  0
  9 10  1  0
 10 11  1  0
 10 21  2  0
 11 12  1  0
 12 13  2  0
 12 14  1  0
 14 15  1  0
 15 16  2  0
 15 20  1  0
 16 17  1  0
 17 18  2  0
 18 19  1  0
 19 20  2  0
 21 22  1  0
M  END
