WPC0053_minimised.pdb
     RDKit          3D

 20 21  0  0  0  0  0  0  0  0999 V2000
    8.8200    0.0070   19.8940 O   0  0  0  0  0  0  0  0  0  0  0  0
    8.2370    0.1960   20.9380 C   0  0  0  0  0  0  0  0  0  0  0  0
    8.8840    0.3350   22.1370 N   0  0  0  0  0  0  0  0  0  0  0  0
   10.2880    0.3460   22.3040 C   0  0  0  0  0  0  0  0  0  0  0  0
   11.0740   -0.7240   21.8430 C   0  0  0  0  0  0  0  0  0  0  0  0
   12.4720   -0.6810   21.9720 C   0  0  0  0  0  0  0  0  0  0  0  0
   13.0860    0.4320   22.5690 C   0  0  0  0  0  0  0  0  0  0  0  0
   12.3010    1.5000   23.0310 C   0  0  0  0  0  0  0  0  0  0  0  0
   10.9030    1.4570   22.9020 C   0  0  0  0  0  0  0  0  0  0  0  0
    6.8740    0.3380   21.0030 N   0  0  0  0  0  0  0  0  0  0  0  0
    6.0100    0.6110   19.9020 C   0  0  0  0  0  0  0  0  0  0  0  0
    6.2910    0.2320   18.5670 C   0  0  0  0  0  0  0  0  0  0  0  0
    5.5790    0.6590   17.5030 N   0  0  0  0  0  0  0  0  0  0  0  0
    4.5620    1.5170   17.7410 C   0  0  0  0  0  0  0  0  0  0  0  0
    4.1530    1.8750   19.0320 C   0  0  0  0  0  0  0  0  0  0  0  0
    4.8790    1.4070   20.1310 C   0  0  0  0  0  0  0  0  0  0  0  0
    4.4960    1.7360   21.4070 O   0  0  0  0  0  0  0  0  0  0  0  0
    4.7240    3.0670   21.9070 C   0  0  0  0  0  0  0  0  0  0  0  0
    6.0230    3.1840   22.2680 F   0  0  0  0  0  0  0  0  0  0  0  0
    4.0100    3.2060   23.0460 F   0  0  0  0  0  0  0  0  0  0  0  0
  1  2  2  0
  2  3  1  0
  2 10  1  0
  3  4  1  0
  4  5  2  0
  4  9  1  0
  5  6  1  0
  6  7  2  0
  7  8  1  0
  8  9  2  0
 10 11  1  0
 11 12  2  0
 11 16  1  0
 12 13  1  0
 13 14  2  0
 14 15  1  0
 15 16  2  0
 16 17  1  0
 17 18  1  0
 18 20  1  0
 18 19  1  0
M  END
