WPC0019_minimised.pdb
     RDKit          3D

 23 24  0  0  0  0  0  0  0  0999 V2000
    5.1180    4.3590   22.1210 C   0  0  0  0  0  0  0  0  0  0  0  0
    6.4320    4.2370   21.8880 C   0  0  0  0  0  0  0  0  0  0  0  0
    7.3470    3.1950   22.4920 C   0  0  0  0  0  0  0  0  0  0  0  0
    6.8730    1.9180   22.0550 O   0  0  0  0  0  0  0  0  0  0  0  0
    5.8230    1.3410   22.6930 C   0  0  0  0  0  0  0  0  0  0  0  0
    5.5150    1.4990   23.8570 O   0  0  0  0  0  0  0  0  0  0  0  0
    5.1030    0.5410   21.8480 N   0  0  0  0  0  0  0  0  0  0  0  0
    5.3080    0.3650   20.4590 C   0  0  0  0  0  0  0  0  0  0  0  0
    4.5370    1.0750   19.5280 C   0  0  0  0  0  0  0  0  0  0  0  0
    4.8510    0.9880   18.1630 C   0  0  0  0  0  0  0  0  0  0  0  0
    5.8550    0.2190   17.6900 N   0  0  0  0  0  0  0  0  0  0  0  0
    6.6240   -0.4220   18.5950 C   0  0  0  0  0  0  0  0  0  0  0  0
    6.3870   -0.3940   19.9850 C   0  0  0  0  0  0  0  0  0  0  0  0
    7.3320   -0.9220   20.9100 N   0  0  0  0  0  0  0  0  0  0  0  0
    8.6060   -0.4250   20.9880 C   0  0  0  0  0  0  0  0  0  0  0  0
    9.0600    0.2940   20.1250 O   0  0  0  0  0  0  0  0  0  0  0  0
    9.3040   -0.7700   22.1140 N   0  0  0  0  0  0  0  0  0  0  0  0
   10.5680   -0.2390   22.4420 C   0  0  0  0  0  0  0  0  0  0  0  0
   11.7290   -0.7530   21.8460 C   0  0  0  0  0  0  0  0  0  0  0  0
   12.9790   -0.1730   22.1200 C   0  0  0  0  0  0  0  0  0  0  0  0
   13.0630    0.9280   22.9880 C   0  0  0  0  0  0  0  0  0  0  0  0
   11.8970    1.4510   23.5720 C   0  0  0  0  0  0  0  0  0  0  0  0
   10.6510    0.8620   23.3060 C   0  0  0  0  0  0  0  0  0  0  0  0
  1  2  2  0
  2  3  1  0
  3  4  1  0
  4  5  1  0
  5  6  2  0
  5  7  1  0
  7  8  1  0
  8  9  2  0
  8 13  1  0
  9 10  1  0
 10 11  2  0
 11 12  1  0
 12 13  2  0
 13 14  1  0
 14 15  1  0
 15 16  2  0
 15 17  1  0
 17 18  1  0
 18 19  2  0
 18 23  1  0
 19 20  1  0
 20 21  2  0
 21 22  1  0
 22 23  2  0
M  END
