WPC0326_minimised.pdb
     RDKit          3D

 20 21  0  0  0  0  0  0  0  0999 V2000
    8.3730   -5.2100   23.9620 N   0  0  0  0  0  0  0  0  0  0  0  0
    8.9950   -4.2590   23.7670 C   0  0  0  0  0  0  0  0  0  0  0  0
    9.7190   -3.0240   23.4510 C   0  0  0  0  0  0  0  0  0  0  0  0
    8.7630   -2.0230   22.7610 C   0  0  0  0  0  0  0  0  0  0  0  0
    9.3760   -0.8300   22.1290 N   0  0  0  0  0  0  0  0  0  0  0  0
    8.6680   -0.0520   21.2170 C   0  0  0  0  0  0  0  0  0  0  0  0
    9.1810    0.8600   20.6010 O   0  0  0  0  0  0  0  0  0  0  0  0
    7.3470   -0.3660   21.0020 N   0  0  0  0  0  0  0  0  0  0  0  0
    6.5390    0.2150   19.9910 C   0  0  0  0  0  0  0  0  0  0  0  0
    5.5640    1.1660   20.3210 C   0  0  0  0  0  0  0  0  0  0  0  0
    4.8710    1.7860   19.2690 C   0  0  0  0  0  0  0  0  0  0  0  0
    5.1660    1.4360   17.9400 C   0  0  0  0  0  0  0  0  0  0  0  0
    6.0800    0.4940   17.6170 N   0  0  0  0  0  0  0  0  0  0  0  0
    6.7670   -0.0750   18.6300 C   0  0  0  0  0  0  0  0  0  0  0  0
   10.7080   -0.4550   22.4470 C   0  0  0  0  0  0  0  0  0  0  0  0
   11.7890   -1.0330   21.7620 C   0  0  0  0  0  0  0  0  0  0  0  0
   13.0970   -0.5650   21.9710 C   0  0  0  0  0  0  0  0  0  0  0  0
   13.3220    0.5040   22.8530 C   0  0  0  0  0  0  0  0  0  0  0  0
   12.2400    1.0940   23.5260 C   0  0  0  0  0  0  0  0  0  0  0  0
   10.9370    0.6080   23.3330 C   0  0  0  0  0  0  0  0  0  0  0  0
  1  2  3  0
  2  3  1  0
  3  4  1  0
  4  5  1  0
  5  6  1  0
  5 15  1  0
  6  8  1  0
  6  7  2  0
  8  9  1  0
  9 10  2  0
  9 14  1  0
 10 11  1  0
 11 12  2  0
 12 13  1  0
 13 14  2  0
 15 16  2  0
 15 20  1  0
 16 17  1  0
 17 18  2  0
 18 19  1  0
 19 20  2  0
M  END
