WPC0939_minimised.pdb
     RDKit          3D

 24 26  0  0  0  0  0  0  0  0999 V2000
    8.7620    0.1440   20.0250 O   0  0  0  0  0  0  0  0  0  0  0  0
    8.0290   -0.1030   20.9630 C   0  0  0  0  0  0  0  0  0  0  0  0
    8.4580   -0.3920   22.2320 N   0  0  0  0  0  0  0  0  0  0  0  0
    9.7800   -0.2030   22.6870 C   0  0  0  0  0  0  0  0  0  0  0  0
   10.8660   -0.7510   21.9880 C   0  0  0  0  0  0  0  0  0  0  0  0
   12.1780   -0.3870   22.3240 C   0  0  0  0  0  0  0  0  0  0  0  0
   12.4080    0.5360   23.3600 C   0  0  0  0  0  0  0  0  0  0  0  0
   13.8050    1.0940   23.5930 C   0  0  0  0  0  0  0  0  0  0  0  0
   14.1120    2.3090   22.6840 C   0  0  0  0  0  0  0  0  0  0  0  0
   13.0880    3.3800   22.7140 N   0  0  0  0  0  0  0  0  0  0  0  0
   13.0360    4.1690   23.9730 C   0  0  0  0  0  0  0  0  0  0  0  0
   12.7990    5.6860   23.7660 C   0  0  0  0  0  0  0  0  0  0  0  0
   13.7810    6.2600   22.8170 N   0  0  0  0  0  0  0  0  0  0  0  0
   13.9830    5.4410   21.5980 C   0  0  0  0  0  0  0  0  0  0  0  0
   13.0210    4.2270   21.5010 C   0  0  0  0  0  0  0  0  0  0  0  0
   11.3230    0.9990   24.1250 C   0  0  0  0  0  0  0  0  0  0  0  0
   10.0110    0.6340   23.7880 C   0  0  0  0  0  0  0  0  0  0  0  0
    6.6660   -0.0690   20.8530 N   0  0  0  0  0  0  0  0  0  0  0  0
    5.9620    0.4470   19.7380 C   0  0  0  0  0  0  0  0  0  0  0  0
    4.9850    1.4270   19.9510 C   0  0  0  0  0  0  0  0  0  0  0  0
    4.3940    2.0140   18.8250 C   0  0  0  0  0  0  0  0  0  0  0  0
    4.7980    1.6140   17.5430 C   0  0  0  0  0  0  0  0  0  0  0  0
    5.7040    0.6340   17.3270 N   0  0  0  0  0  0  0  0  0  0  0  0
    6.2890    0.0840   18.4120 C   0  0  0  0  0  0  0  0  0  0  0  0
  1  2  2  0
  2  3  1  0
  2 18  1  0
  3  4  1  0
  4  5  2  0
  4 17  1  0
  5  6  1  0
  6  7  2  0
  7  8  1  0
  7 16  1  0
  8  9  1  0
  9 10  1  0
 10 11  1  0
 10 15  1  0
 11 12  1  0
 12 13  1  0
 13 14  1  0
 14 15  1  0
 16 17  2  0
 18 19  1  0
 19 20  2  0
 19 24  1  0
 20 21  1  0
 21 22  2  0
 22 23  1  0
 23 24  2  0
M  END
