WPC0467_minimised.pdb
     RDKit          3D

 24 26  0  0  0  0  0  0  0  0999 V2000
    8.5590    0.1640   19.9180 O   0  0  0  0  0  0  0  0  0  0  0  0
    7.8020   -0.1450   20.8190 C   0  0  0  0  0  0  0  0  0  0  0  0
    8.2000   -0.4760   22.0880 N   0  0  0  0  0  0  0  0  0  0  0  0
    9.4920   -0.2210   22.5880 C   0  0  0  0  0  0  0  0  0  0  0  0
   10.6230   -0.6100   21.8520 C   0  0  0  0  0  0  0  0  0  0  0  0
   11.8860   -0.1140   22.1960 C   0  0  0  0  0  0  0  0  0  0  0  0
   12.0110    0.7600   23.2830 C   0  0  0  0  0  0  0  0  0  0  0  0
   13.5650    1.5500   23.5700 S   0  0  0  0  0  0  0  0  0  0  0  0
   13.4150    3.2230   22.7860 C   0  0  0  0  0  0  0  0  0  0  0  0
   12.3440    4.1300   23.3700 C   0  0  0  0  0  0  0  0  0  0  0  0
   12.6790    5.2270   24.1730 C   0  0  0  0  0  0  0  0  0  0  0  0
   11.6730    6.1000   24.6100 C   0  0  0  0  0  0  0  0  0  0  0  0
   10.3810    5.9550   24.2660 N   0  0  0  0  0  0  0  0  0  0  0  0
   10.0520    4.9170   23.4720 C   0  0  0  0  0  0  0  0  0  0  0  0
   10.9960    3.9860   23.0170 C   0  0  0  0  0  0  0  0  0  0  0  0
   10.9050    1.0450   24.1000 C   0  0  0  0  0  0  0  0  0  0  0  0
    9.6380    0.5610   23.7440 C   0  0  0  0  0  0  0  0  0  0  0  0
    6.4440   -0.1300   20.6730 N   0  0  0  0  0  0  0  0  0  0  0  0
    5.7740    0.4520   19.5720 C   0  0  0  0  0  0  0  0  0  0  0  0
    4.8130    1.4430   19.8090 C   0  0  0  0  0  0  0  0  0  0  0  0
    4.2750    2.1060   18.6990 C   0  0  0  0  0  0  0  0  0  0  0  0
    4.7180    1.7730   17.4110 C   0  0  0  0  0  0  0  0  0  0  0  0
    5.6110    0.7850   17.1700 N   0  0  0  0  0  0  0  0  0  0  0  0
    6.1380    0.1570   18.2400 C   0  0  0  0  0  0  0  0  0  0  0  0
  1  2  2  0
  2  3  1  0
  2 18  1  0
  3  4  1  0
  4  5  2  0
  4 17  1  0
  5  6  1  0
  6  7  2  0
  7  8  1  0
  7 16  1  0
  8  9  1  0
  9 10  1  0
 10 11  2  0
 10 15  1  0
 11 12  1  0
 12 13  2  0
 13 14  1  0
 14 15  2  0
 16 17  2  0
 18 19  1  0
 19 20  2  0
 19 24  1  0
 20 21  1  0
 21 22  2  0
 22 23  1  0
 23 24  2  0
M  END
