WPC0106_minimised.pdb
     RDKit          3D

 23 25  0  0  0  0  0  0  0  0999 V2000
    9.0400    0.7210   20.4850 O   0  0  0  0  0  0  0  0  0  0  0  0
    8.5760   -0.1340   21.2090 C   0  0  0  0  0  0  0  0  0  0  0  0
    9.2930   -0.7000   22.2270 N   0  0  0  0  0  0  0  0  0  0  0  0
   10.6390   -0.3600   22.4870 C   0  0  0  0  0  0  0  0  0  0  0  0
   11.6700   -1.1410   21.9460 C   0  0  0  0  0  0  0  0  0  0  0  0
   13.0100   -0.7360   22.0770 C   0  0  0  0  0  0  0  0  0  0  0  0
   13.3150    0.4520   22.7620 C   0  0  0  0  0  0  0  0  0  0  0  0
   12.2820    1.2370   23.2990 C   0  0  0  0  0  0  0  0  0  0  0  0
   10.9450    0.8310   23.1610 C   0  0  0  0  0  0  0  0  0  0  0  0
    7.3020   -0.6010   21.0270 N   0  0  0  0  0  0  0  0  0  0  0  0
    6.4510   -0.0680   20.0160 C   0  0  0  0  0  0  0  0  0  0  0  0
    6.7890   -0.2130   18.6550 C   0  0  0  0  0  0  0  0  0  0  0  0
    6.1070    0.3620   17.6430 N   0  0  0  0  0  0  0  0  0  0  0  0
    5.0950    1.1880   17.9750 C   0  0  0  0  0  0  0  0  0  0  0  0
    4.6910    1.4010   19.3000 C   0  0  0  0  0  0  0  0  0  0  0  0
    5.3690    0.7620   20.3490 C   0  0  0  0  0  0  0  0  0  0  0  0
    4.9940    0.9280   21.6770 N   0  0  0  0  0  0  0  0  0  0  0  0
    4.3260    1.9300   22.3240 C   0  0  0  0  0  0  0  0  0  0  0  0
    4.2550    3.2390   21.8480 C   0  0  0  0  0  0  0  0  0  0  0  0
    3.5130    4.1810   22.5610 C   0  0  0  0  0  0  0  0  0  0  0  0
    2.8920    3.7580   23.7450 C   0  0  0  0  0  0  0  0  0  0  0  0
    3.0570    2.4290   24.1640 C   0  0  0  0  0  0  0  0  0  0  0  0
    3.7630    1.5180   23.4660 N   0  0  0  0  0  0  0  0  0  0  0  0
  1  2  2  0
  2  3  1  0
  2 10  1  0
  3  4  1  0
  4  5  2  0
  4  9  1  0
  5  6  1  0
  6  7  2  0
  7  8  1  0
  8  9  2  0
 10 11  1  0
 11 12  2  0
 11 16  1  0
 12 13  1  0
 13 14  2  0
 14 15  1  0
 15 16  2  0
 16 17  1  0
 17 18  1  0
 18 19  2  0
 18 23  1  0
 19 20  1  0
 20 21  2  0
 21 22  1  0
 22 23  2  0
M  END
