WPC0742_minimised.pdb
     RDKit          3D

 21 22  0  0  0  0  0  0  0  0999 V2000
    8.4950   -0.0010   19.8160 O   0  0  0  0  0  0  0  0  0  0  0  0
    7.7280   -0.2620   20.7230 C   0  0  0  0  0  0  0  0  0  0  0  0
    8.1110   -0.5900   21.9950 N   0  0  0  0  0  0  0  0  0  0  0  0
    9.4010   -0.3570   22.5060 C   0  0  0  0  0  0  0  0  0  0  0  0
   10.5380   -0.7600   21.7900 C   0  0  0  0  0  0  0  0  0  0  0  0
   11.8100   -0.3200   22.1780 C   0  0  0  0  0  0  0  0  0  0  0  0
   11.9440    0.5110   23.3010 C   0  0  0  0  0  0  0  0  0  0  0  0
   13.3020    1.0710   23.6690 C   0  0  0  0  0  0  0  0  0  0  0  0
   13.6210    2.2390   22.8890 O   0  0  0  0  0  0  0  0  0  0  0  0
   12.8680    3.4520   22.9930 N   0  0  0  0  0  0  0  0  0  0  0  0
   12.1110    3.5770   23.9510 O   0  0  0  0  0  0  0  0  0  0  0  0
   13.3300    4.3840   22.3440 O   0  0  0  0  0  0  0  0  0  0  0  0
   10.8140    0.8270   24.0800 C   0  0  0  0  0  0  0  0  0  0  0  0
    9.5420    0.4020   23.6750 C   0  0  0  0  0  0  0  0  0  0  0  0
    6.3710   -0.1910   20.5840 N   0  0  0  0  0  0  0  0  0  0  0  0
    5.7150    0.4260   19.4940 C   0  0  0  0  0  0  0  0  0  0  0  0
    4.7620    1.4200   19.7500 C   0  0  0  0  0  0  0  0  0  0  0  0
    4.2390    2.1160   18.6540 C   0  0  0  0  0  0  0  0  0  0  0  0
    4.6920    1.8160   17.3620 C   0  0  0  0  0  0  0  0  0  0  0  0
    5.5770    0.8270   17.1030 N   0  0  0  0  0  0  0  0  0  0  0  0
    6.0860    0.1610   18.1590 C   0  0  0  0  0  0  0  0  0  0  0  0
  1  2  2  0
  2  3  1  0
  2 15  1  0
  3  4  1  0
  4  5  2  0
  4 14  1  0
  5  6  1  0
  6  7  2  0
  7  8  1  0
  7 13  1  0
  8  9  1  0
  9 10  1  0
 10 11  1  0
 10 12  2  0
 13 14  2  0
 15 16  1  0
 16 17  2  0
 16 21  1  0
 17 18  1  0
 18 19  2  0
 19 20  1  0
 20 21  2  0
M  CHG  2  10   1  11  -1
M  END
