WPC0624_minimised.pdb
     RDKit          3D

 24 25  0  0  0  0  0  0  0  0999 V2000
   14.8450    4.2060   23.3980 O   0  0  0  0  0  0  0  0  0  0  0  0
   14.1630    3.3740   22.8260 C   0  0  0  0  0  0  0  0  0  0  0  0
   14.6320    1.9560   22.5140 C   0  0  0  0  0  0  0  0  0  0  0  0
   13.9970    0.8280   23.3560 C   0  0  0  0  0  0  0  0  0  0  0  0
   12.5270    0.6080   23.0690 C   0  0  0  0  0  0  0  0  0  0  0  0
   12.1400   -0.2590   22.0360 C   0  0  0  0  0  0  0  0  0  0  0  0
   10.7800   -0.4660   21.7760 C   0  0  0  0  0  0  0  0  0  0  0  0
    9.8020    0.2040   22.5260 C   0  0  0  0  0  0  0  0  0  0  0  0
    8.4410    0.0950   22.1740 N   0  0  0  0  0  0  0  0  0  0  0  0
    7.9580    0.2870   20.9090 C   0  0  0  0  0  0  0  0  0  0  0  0
    8.6630    0.4800   19.9380 O   0  0  0  0  0  0  0  0  0  0  0  0
    6.5940    0.2760   20.8290 N   0  0  0  0  0  0  0  0  0  0  0  0
    5.8610    0.6950   19.6920 C   0  0  0  0  0  0  0  0  0  0  0  0
    4.8580    1.6570   19.8560 C   0  0  0  0  0  0  0  0  0  0  0  0
    4.2600    2.1740   18.7020 C   0  0  0  0  0  0  0  0  0  0  0  0
    4.6950    1.7400   17.4420 C   0  0  0  0  0  0  0  0  0  0  0  0
    5.6200    0.7680   17.2730 N   0  0  0  0  0  0  0  0  0  0  0  0
    6.1990    0.2730   18.3860 C   0  0  0  0  0  0  0  0  0  0  0  0
   10.1850    1.0460   23.5790 C   0  0  0  0  0  0  0  0  0  0  0  0
   11.5460    1.2430   23.8540 C   0  0  0  0  0  0  0  0  0  0  0  0
   12.9060    3.6960   22.3950 N   0  0  0  0  0  0  0  0  0  0  0  0
   12.3960    5.0710   22.4100 C   0  0  0  0  0  0  0  0  0  0  0  0
   11.7520    5.4570   23.7550 C   0  0  0  0  0  0  0  0  0  0  0  0
   12.7560    5.9020   24.6630 O   0  0  0  0  0  0  0  0  0  0  0  0
  1  2  2  0
  2 21  1  0
  2  3  1  0
  3  4  1  0
  4  5  1  0
  5 20  2  0
  5  6  1  0
  6  7  2  0
  7  8  1  0
  8  9  1  0
  8 19  2  0
  9 10  1  0
 10 11  2  0
 10 12  1  0
 12 13  1  0
 13 14  2  0
 13 18  1  0
 14 15  1  0
 15 16  2  0
 16 17  1  0
 17 18  2  0
 19 20  1  0
 21 22  1  0
 22 23  1  0
 23 24  1  0
M  END
