WPC0287_minimised.pdb
     RDKit          3D

 18 19  0  0  0  0  0  0  0  0999 V2000
    6.2300   -1.4580   23.0590 C   0  0  0  0  0  0  0  0  0  0  0  0
    6.9090   -1.7650   21.7110 C   0  0  0  0  0  0  0  0  0  0  0  0
    7.3770   -0.5420   21.0340 N   0  0  0  0  0  0  0  0  0  0  0  0
    8.6460    0.0020   21.2210 C   0  0  0  0  0  0  0  0  0  0  0  0
    9.0100    0.9790   20.6000 O   0  0  0  0  0  0  0  0  0  0  0  0
    9.4860   -0.6290   22.1070 N   0  0  0  0  0  0  0  0  0  0  0  0
   10.8400   -0.2880   22.3190 C   0  0  0  0  0  0  0  0  0  0  0  0
   11.8420   -1.2210   22.0180 C   0  0  0  0  0  0  0  0  0  0  0  0
   13.1970   -0.8700   22.1410 C   0  0  0  0  0  0  0  0  0  0  0  0
   13.5470    0.4090   22.6060 C   0  0  0  0  0  0  0  0  0  0  0  0
   12.5440    1.3370   22.9280 C   0  0  0  0  0  0  0  0  0  0  0  0
   11.1920    0.9920   22.7750 C   0  0  0  0  0  0  0  0  0  0  0  0
    6.5140    0.0340   20.0560 C   0  0  0  0  0  0  0  0  0  0  0  0
    5.5340    0.9680   20.4240 C   0  0  0  0  0  0  0  0  0  0  0  0
    4.8130    1.6040   19.4000 C   0  0  0  0  0  0  0  0  0  0  0  0
    5.0860    1.2910   18.0590 C   0  0  0  0  0  0  0  0  0  0  0  0
    6.0080    0.3720   17.6960 N   0  0  0  0  0  0  0  0  0  0  0  0
    6.7210   -0.2120   18.6820 C   0  0  0  0  0  0  0  0  0  0  0  0
  1  2  1  0
  2  3  1  0
  3  4  1  0
  3 13  1  0
  4  6  1  0
  4  5  2  0
  6  7  1  0
  7  8  2  0
  7 12  1  0
  8  9  1  0
  9 10  2  0
 10 11  1  0
 11 12  2  0
 13 14  2  0
 13 18  1  0
 14 15  1  0
 15 16  2  0
 16 17  1  0
 17 18  2  0
M  END
