WPC0410_minimised.pdb
     RDKit          3D

 20 21  0  0  0  0  0  0  0  0999 V2000
   12.9490    4.9530   22.8480 C   0  0  0  0  0  0  0  0  0  0  0  0
   12.8240    3.5870   23.3720 N   0  0  0  0  0  0  0  0  0  0  0  0
   13.7620    2.6420   22.7460 C   0  0  0  0  0  0  0  0  0  0  0  0
   13.5870    1.1930   23.2570 C   0  0  0  0  0  0  0  0  0  0  0  0
   12.1950    0.6400   23.0220 C   0  0  0  0  0  0  0  0  0  0  0  0
   11.9600   -0.2420   21.9570 C   0  0  0  0  0  0  0  0  0  0  0  0
   10.6550   -0.6770   21.6910 C   0  0  0  0  0  0  0  0  0  0  0  0
    9.5800   -0.2140   22.4670 C   0  0  0  0  0  0  0  0  0  0  0  0
    8.2530   -0.4440   22.0500 N   0  0  0  0  0  0  0  0  0  0  0  0
    7.7970   -0.1470   20.7930 C   0  0  0  0  0  0  0  0  0  0  0  0
    8.5200    0.1320   19.8560 O   0  0  0  0  0  0  0  0  0  0  0  0
    6.4330   -0.1330   20.6880 N   0  0  0  0  0  0  0  0  0  0  0  0
    5.7420    0.4370   19.5930 C   0  0  0  0  0  0  0  0  0  0  0  0
    4.7920    1.4370   19.8360 C   0  0  0  0  0  0  0  0  0  0  0  0
    4.2550    2.1050   18.7280 C   0  0  0  0  0  0  0  0  0  0  0  0
    4.6920    1.7720   17.4380 C   0  0  0  0  0  0  0  0  0  0  0  0
    5.5690    0.7730   17.1920 N   0  0  0  0  0  0  0  0  0  0  0  0
    6.0910    0.1350   18.2590 C   0  0  0  0  0  0  0  0  0  0  0  0
    9.8230    0.6020   23.5790 C   0  0  0  0  0  0  0  0  0  0  0  0
   11.1310    1.0180   23.8640 C   0  0  0  0  0  0  0  0  0  0  0  0
  1  2  1  0
  2  3  1  0
  3  4  1  0
  4  5  1  0
  5 20  2  0
  5  6  1  0
  6  7  2  0
  7  8  1  0
  8  9  1  0
  8 19  2  0
  9 10  1  0
 10 11  2  0
 10 12  1  0
 12 13  1  0
 13 14  2  0
 13 18  1  0
 14 15  1  0
 15 16  2  0
 16 17  1  0
 17 18  2  0
 19 20  1  0
M  END
