WPC0303_minimised.pdb
     RDKit          3D

 22 24  0  0  0  0  0  0  0  0999 V2000
    9.2520    1.0290   20.7670 O   0  0  0  0  0  0  0  0  0  0  0  0
    8.9150   -0.0570   21.1940 C   0  0  0  0  0  0  0  0  0  0  0  0
    7.6680   -0.5520   20.8920 N   0  0  0  0  0  0  0  0  0  0  0  0
    6.7680    0.0540   19.9740 C   0  0  0  0  0  0  0  0  0  0  0  0
    5.8940    1.0650   20.3990 C   0  0  0  0  0  0  0  0  0  0  0  0
    5.0810    1.6810   19.4340 C   0  0  0  0  0  0  0  0  0  0  0  0
    5.1710    1.2810   18.0900 C   0  0  0  0  0  0  0  0  0  0  0  0
    5.9990    0.2970   17.6750 N   0  0  0  0  0  0  0  0  0  0  0  0
    6.7960   -0.2750   18.6030 C   0  0  0  0  0  0  0  0  0  0  0  0
    9.7680   -0.8500   21.9540 N   0  0  0  0  0  0  0  0  0  0  0  0
    9.4100   -2.2040   22.4390 C   0  0  0  0  0  0  0  0  0  0  0  0
    8.9180   -2.2610   23.8650 C   0  0  0  0  0  0  0  0  0  0  0  0
    8.8590   -1.1920   24.7280 C   0  0  0  0  0  0  0  0  0  0  0  0
    8.4690   -1.5700   26.0450 C   0  0  0  0  0  0  0  0  0  0  0  0
    8.2340   -2.9180   26.1780 C   0  0  0  0  0  0  0  0  0  0  0  0
    8.5030   -3.7700   24.6620 S   0  0  0  0  0  0  0  0  0  0  0  0
   11.1020   -0.4240   22.1910 C   0  0  0  0  0  0  0  0  0  0  0  0
   12.1720   -1.1420   21.6350 C   0  0  0  0  0  0  0  0  0  0  0  0
   13.4950   -0.7180   21.8240 C   0  0  0  0  0  0  0  0  0  0  0  0
   13.7550    0.4450   22.5650 C   0  0  0  0  0  0  0  0  0  0  0  0
   12.6890    1.1820   23.1020 C   0  0  0  0  0  0  0  0  0  0  0  0
   11.3670    0.7480   22.9190 C   0  0  0  0  0  0  0  0  0  0  0  0
  1  2  2  0
  2  3  1  0
  2 10  1  0
  3  4  1  0
  4  5  2  0
  4  9  1  0
  5  6  1  0
  6  7  2  0
  7  8  1  0
  8  9  2  0
 10 17  1  0
 10 11  1  0
 11 12  1  0
 12 13  2  0
 12 16  1  0
 13 14  1  0
 14 15  2  0
 15 16  1  0
 17 18  2  0
 17 22  1  0
 18 19  1  0
 19 20  2  0
 20 21  1  0
 21 22  2  0
M  END
