WPC0865_minimised.pdb
     RDKit          3D

 20 21  0  0  0  0  0  0  0  0999 V2000
   12.7380    4.5820   21.7660 N   0  0  0  0  0  0  0  0  0  0  0  0
   12.5890    3.3540   22.5520 C   0  0  0  0  0  0  0  0  0  0  0  0
   13.9050    2.5540   22.5690 C   0  0  0  0  0  0  0  0  0  0  0  0
   13.7920    0.9750   23.5190 S   0  0  0  0  0  0  0  0  0  0  0  0
   12.1530    0.3910   23.1950 C   0  0  0  0  0  0  0  0  0  0  0  0
   11.9240   -0.4490   22.0970 C   0  0  0  0  0  0  0  0  0  0  0  0
   10.6090   -0.8060   21.7680 C   0  0  0  0  0  0  0  0  0  0  0  0
    9.5310   -0.3060   22.5160 C   0  0  0  0  0  0  0  0  0  0  0  0
    8.2120   -0.4650   22.0470 N   0  0  0  0  0  0  0  0  0  0  0  0
    7.8070   -0.1100   20.7880 C   0  0  0  0  0  0  0  0  0  0  0  0
    8.5640    0.1970   19.8860 O   0  0  0  0  0  0  0  0  0  0  0  0
    6.4490   -0.0790   20.6460 N   0  0  0  0  0  0  0  0  0  0  0  0
    5.7790    0.5000   19.5440 C   0  0  0  0  0  0  0  0  0  0  0  0
    4.8080    1.4820   19.7770 C   0  0  0  0  0  0  0  0  0  0  0  0
    4.2760    2.1460   18.6640 C   0  0  0  0  0  0  0  0  0  0  0  0
    4.7370    1.8250   17.3800 C   0  0  0  0  0  0  0  0  0  0  0  0
    5.6380    0.8450   17.1420 N   0  0  0  0  0  0  0  0  0  0  0  0
    6.1550    0.2120   18.2140 C   0  0  0  0  0  0  0  0  0  0  0  0
    9.7680    0.4730   23.6570 C   0  0  0  0  0  0  0  0  0  0  0  0
   11.0840    0.8170   24.0000 C   0  0  0  0  0  0  0  0  0  0  0  0
  1  2  1  0
  2  3  1  0
  3  4  1  0
  4  5  1  0
  5 20  2  0
  5  6  1  0
  6  7  2  0
  7  8  1  0
  8  9  1  0
  8 19  2  0
  9 10  1  0
 10 11  2  0
 10 12  1  0
 12 13  1  0
 13 14  2  0
 13 18  1  0
 14 15  1  0
 15 16  2  0
 16 17  1  0
 17 18  2  0
 19 20  1  0
M  END
