WPC0876_minimised.pdb
     RDKit          3D

 23 24  0  0  0  0  0  0  0  0999 V2000
   11.9860    3.5800   24.2840 O   0  0  0  0  0  0  0  0  0  0  0  0
   12.5950    3.4130   23.2390 C   0  0  0  0  0  0  0  0  0  0  0  0
   12.8700    4.4700   22.1990 C   0  0  0  0  0  0  0  0  0  0  0  0
   13.4590    5.5720   22.5580 N   0  0  0  0  0  0  0  0  0  0  0  0
   13.0610    6.1640   23.7580 O   0  0  0  0  0  0  0  0  0  0  0  0
   13.1510    2.1840   22.9460 N   0  0  0  0  0  0  0  0  0  0  0  0
   12.9840    0.9700   23.7400 C   0  0  0  0  0  0  0  0  0  0  0  0
   11.6690    0.3210   23.3950 C   0  0  0  0  0  0  0  0  0  0  0  0
   11.5790   -0.5590   22.3040 C   0  0  0  0  0  0  0  0  0  0  0  0
   10.3220   -1.0000   21.8740 C   0  0  0  0  0  0  0  0  0  0  0  0
    9.1620   -0.5470   22.5200 C   0  0  0  0  0  0  0  0  0  0  0  0
    7.8970   -0.7500   21.9400 N   0  0  0  0  0  0  0  0  0  0  0  0
    7.5910   -0.3650   20.6640 C   0  0  0  0  0  0  0  0  0  0  0  0
    8.4070   -0.1150   19.7960 O   0  0  0  0  0  0  0  0  0  0  0  0
    6.2460   -0.2210   20.4780 N   0  0  0  0  0  0  0  0  0  0  0  0
    5.6540    0.4560   19.3890 C   0  0  0  0  0  0  0  0  0  0  0  0
    4.7060    1.4540   19.6430 C   0  0  0  0  0  0  0  0  0  0  0  0
    4.2360    2.1970   18.5530 C   0  0  0  0  0  0  0  0  0  0  0  0
    4.7410    1.9390   17.2700 C   0  0  0  0  0  0  0  0  0  0  0  0
    5.6260    0.9500   17.0120 N   0  0  0  0  0  0  0  0  0  0  0  0
    6.0770    0.2350   18.0620 C   0  0  0  0  0  0  0  0  0  0  0  0
    9.2560    0.2660   23.6570 C   0  0  0  0  0  0  0  0  0  0  0  0
   10.5120    0.7000   24.0980 C   0  0  0  0  0  0  0  0  0  0  0  0
  1  2  2  0
  2  3  1  0
  2  6  1  0
  3  4  2  0
  4  5  1  0
  6  7  1  0
  7  8  1  0
  8 23  2  0
  8  9  1  0
  9 10  2  0
 10 11  1  0
 11 12  1  0
 11 22  2  0
 12 13  1  0
 13 14  2  0
 13 15  1  0
 15 16  1  0
 16 17  2  0
 16 21  1  0
 17 18  1  0
 18 19  2  0
 19 20  1  0
 20 21  2  0
 22 23  1  0
M  END
