WPC0957_minimised.pdb
     RDKit          3D

 20 21  0  0  0  0  0  0  0  0999 V2000
   14.8720    1.8930   22.1090 C   0  0  0  0  0  0  0  0  0  0  0  0
   13.6370    1.8710   22.9860 C   0  0  0  0  0  0  0  0  0  0  0  0
   13.0210    2.8880   23.2430 O   0  0  0  0  0  0  0  0  0  0  0  0
   13.2600    0.5050   23.5470 C   0  0  0  0  0  0  0  0  0  0  0  0
   11.8180    0.1420   23.2480 C   0  0  0  0  0  0  0  0  0  0  0  0
   11.5160   -0.8150   22.2630 C   0  0  0  0  0  0  0  0  0  0  0  0
   10.1800   -1.0670   21.9220 C   0  0  0  0  0  0  0  0  0  0  0  0
    9.1460   -0.3640   22.5590 C   0  0  0  0  0  0  0  0  0  0  0  0
    7.8200   -0.4600   22.0920 N   0  0  0  0  0  0  0  0  0  0  0  0
    7.4560   -0.2230   20.7940 C   0  0  0  0  0  0  0  0  0  0  0  0
    8.2320   -0.1630   19.8620 O   0  0  0  0  0  0  0  0  0  0  0  0
    6.1160    0.0050   20.6520 N   0  0  0  0  0  0  0  0  0  0  0  0
    5.5160    0.6040   19.5190 C   0  0  0  0  0  0  0  0  0  0  0  0
    4.5890    1.6350   19.7160 C   0  0  0  0  0  0  0  0  0  0  0  0
    4.1140    2.3080   18.5830 C   0  0  0  0  0  0  0  0  0  0  0  0
    4.5850    1.9460   17.3140 C   0  0  0  0  0  0  0  0  0  0  0  0
    5.4440    0.9220   17.1110 N   0  0  0  0  0  0  0  0  0  0  0  0
    5.9060    0.2780   18.2010 C   0  0  0  0  0  0  0  0  0  0  0  0
    9.4420    0.5410   23.5870 C   0  0  0  0  0  0  0  0  0  0  0  0
   10.7780    0.7920   23.9340 C   0  0  0  0  0  0  0  0  0  0  0  0
  1  2  1  0
  2  3  2  0
  2  4  1  0
  4  5  1  0
  5 20  2  0
  5  6  1  0
  6  7  2  0
  7  8  1  0
  8  9  1  0
  8 19  2  0
  9 10  1  0
 10 11  2  0
 10 12  1  0
 12 13  1  0
 13 14  2  0
 13 18  1  0
 14 15  1  0
 15 16  2  0
 16 17  1  0
 17 18  2  0
 19 20  1  0
M  END
