WPC0959_minimised.pdb
     RDKit          3D

 22 24  0  0  0  0  0  0  0  0999 V2000
    8.5080   -0.0950   19.7690 O   0  0  0  0  0  0  0  0  0  0  0  0
    7.7510   -0.3370   20.6900 C   0  0  0  0  0  0  0  0  0  0  0  0
    8.1450   -0.6350   21.9650 N   0  0  0  0  0  0  0  0  0  0  0  0
    9.4130   -0.2940   22.4710 C   0  0  0  0  0  0  0  0  0  0  0  0
   10.5830   -0.6910   21.8070 C   0  0  0  0  0  0  0  0  0  0  0  0
   11.8180   -0.1300   22.1630 C   0  0  0  0  0  0  0  0  0  0  0  0
   11.8780    0.8290   23.1880 C   0  0  0  0  0  0  0  0  0  0  0  0
   13.1750    1.5460   23.5050 C   0  0  0  0  0  0  0  0  0  0  0  0
   13.1280    3.0430   23.2830 C   0  0  0  0  0  0  0  0  0  0  0  0
   14.0280    3.7530   22.5260 N   0  0  0  0  0  0  0  0  0  0  0  0
   13.7180    5.0890   22.6550 C   0  0  0  0  0  0  0  0  0  0  0  0
   12.6590    5.1360   23.5230 C   0  0  0  0  0  0  0  0  0  0  0  0
   12.3340    3.8700   23.9390 N   0  0  0  0  0  0  0  0  0  0  0  0
   10.7190    1.1430   23.9200 C   0  0  0  0  0  0  0  0  0  0  0  0
    9.4850    0.5880   23.5560 C   0  0  0  0  0  0  0  0  0  0  0  0
    6.3940   -0.2510   20.5640 N   0  0  0  0  0  0  0  0  0  0  0  0
    5.7380    0.3880   19.4870 C   0  0  0  0  0  0  0  0  0  0  0  0
    4.8060    1.3960   19.7620 C   0  0  0  0  0  0  0  0  0  0  0  0
    4.2740    2.1040   18.6770 C   0  0  0  0  0  0  0  0  0  0  0  0
    4.7030    1.8050   17.3770 C   0  0  0  0  0  0  0  0  0  0  0  0
    5.5760    0.8100   17.1010 N   0  0  0  0  0  0  0  0  0  0  0  0
    6.0890    0.1290   18.1450 C   0  0  0  0  0  0  0  0  0  0  0  0
  1  2  2  0
  2  3  1  0
  2 16  1  0
  3  4  1  0
  4  5  2  0
  4 15  1  0
  5  6  1  0
  6  7  2  0
  7  8  1  0
  7 14  1  0
  8  9  1  0
  9 10  1  0
  9 13  2  0
 10 11  1  0
 11 12  2  0
 12 13  1  0
 14 15  2  0
 16 17  1  0
 17 18  2  0
 17 22  1  0
 18 19  1  0
 19 20  2  0
 20 21  1  0
 21 22  2  0
M  END
