WPC0701_minimised.pdb
     RDKit          3D

 24 26  0  0  0  0  0  0  0  0999 V2000
   14.5850    4.4570   23.4020 O   0  0  0  0  0  0  0  0  0  0  0  0
   13.7550    3.7730   22.8350 C   0  0  0  0  0  0  0  0  0  0  0  0
   14.1410    2.4980   22.1010 C   0  0  0  0  0  0  0  0  0  0  0  0
   14.0860    0.9860   23.1550 S   0  0  0  0  0  0  0  0  0  0  0  0
   12.3870    0.5240   23.0040 C   0  0  0  0  0  0  0  0  0  0  0  0
   12.0270   -0.4260   22.0410 C   0  0  0  0  0  0  0  0  0  0  0  0
   10.6730   -0.7060   21.8200 C   0  0  0  0  0  0  0  0  0  0  0  0
    9.6840   -0.0260   22.5490 C   0  0  0  0  0  0  0  0  0  0  0  0
    8.3330   -0.1410   22.1660 N   0  0  0  0  0  0  0  0  0  0  0  0
    7.8910    0.1240   20.8980 C   0  0  0  0  0  0  0  0  0  0  0  0
    8.6310    0.3560   19.9610 O   0  0  0  0  0  0  0  0  0  0  0  0
    6.5300    0.1470   20.7780 N   0  0  0  0  0  0  0  0  0  0  0  0
    5.8420    0.6420   19.6450 C   0  0  0  0  0  0  0  0  0  0  0  0
    4.8570    1.6200   19.8260 C   0  0  0  0  0  0  0  0  0  0  0  0
    4.3140    2.2140   18.6800 C   0  0  0  0  0  0  0  0  0  0  0  0
    4.7790    1.8330   17.4140 C   0  0  0  0  0  0  0  0  0  0  0  0
    5.6840    0.8460   17.2260 N   0  0  0  0  0  0  0  0  0  0  0  0
    6.2120    0.2800   18.3300 C   0  0  0  0  0  0  0  0  0  0  0  0
   10.0490    0.8740   23.5620 C   0  0  0  0  0  0  0  0  0  0  0  0
   11.4060    1.1470   23.7910 C   0  0  0  0  0  0  0  0  0  0  0  0
   12.4230    4.1270   22.8220 N   0  0  0  0  0  0  0  0  0  0  0  0
   11.9100    5.2910   23.4920 C   0  0  0  0  0  0  0  0  0  0  0  0
   10.4480    5.5590   23.2180 C   0  0  0  0  0  0  0  0  0  0  0  0
   10.8730    4.9720   24.5400 C   0  0  0  0  0  0  0  0  0  0  0  0
  1  2  2  0
  2  3  1  0
  2 21  1  0
  3  4  1  0
  4  5  1  0
  5  6  2  0
  5 20  1  0
  6  7  1  0
  7  8  2  0
  8  9  1  0
  8 19  1  0
  9 10  1  0
 10 12  1  0
 10 11  2  0
 12 13  1  0
 13 14  2  0
 13 18  1  0
 14 15  1  0
 15 16  2  0
 16 17  1  0
 17 18  2  0
 19 20  2  0
 21 22  1  0
 22 23  1  0
 22 24  1  0
 23 24  1  0
M  END
