WPC0202_minimised.pdb
     RDKit          3D

 24 25  0  0  0  0  0  0  0  0999 V2000
    6.8470    0.7020   25.3860 C   0  0  0  0  0  0  0  0  0  0  0  0
    5.5090    0.3490   25.7980 O   0  0  0  0  0  0  0  0  0  0  0  0
    4.6470   -0.3320   24.9800 C   0  0  0  0  0  0  0  0  0  0  0  0
    3.4560   -0.4070   25.2330 O   0  0  0  0  0  0  0  0  0  0  0  0
    5.3090   -1.3850   24.0740 C   0  0  0  0  0  0  0  0  0  0  0  0
    5.8210   -0.8690   22.8100 O   0  0  0  0  0  0  0  0  0  0  0  0
    4.9870   -0.1940   21.9510 C   0  0  0  0  0  0  0  0  0  0  0  0
    3.8010   -0.0740   22.1960 O   0  0  0  0  0  0  0  0  0  0  0  0
    5.5190    0.0380   20.5540 C   0  0  0  0  0  0  0  0  0  0  0  0
    4.6850    0.6760   19.6070 C   0  0  0  0  0  0  0  0  0  0  0  0
    5.1100    0.8590   18.2810 C   0  0  0  0  0  0  0  0  0  0  0  0
    6.3020    0.4200   17.8320 N   0  0  0  0  0  0  0  0  0  0  0  0
    7.1460   -0.0990   18.7460 C   0  0  0  0  0  0  0  0  0  0  0  0
    6.8150   -0.3120   20.1050 C   0  0  0  0  0  0  0  0  0  0  0  0
    7.8180   -0.7990   20.9820 N   0  0  0  0  0  0  0  0  0  0  0  0
    8.9940   -0.1460   21.2230 C   0  0  0  0  0  0  0  0  0  0  0  0
    9.2660    0.9020   20.6790 O   0  0  0  0  0  0  0  0  0  0  0  0
    9.8330   -0.7820   22.0950 N   0  0  0  0  0  0  0  0  0  0  0  0
   11.1580   -0.3730   22.3440 C   0  0  0  0  0  0  0  0  0  0  0  0
   12.2050   -1.2540   22.0460 C   0  0  0  0  0  0  0  0  0  0  0  0
   13.5370   -0.8350   22.1760 C   0  0  0  0  0  0  0  0  0  0  0  0
   13.8210    0.4600   22.6390 C   0  0  0  0  0  0  0  0  0  0  0  0
   12.7720    1.3360   22.9580 C   0  0  0  0  0  0  0  0  0  0  0  0
   11.4400    0.9230   22.8030 C   0  0  0  0  0  0  0  0  0  0  0  0
  1  2  1  0
  2  3  1  0
  3  4  2  0
  3  5  1  0
  5  6  1  0
  6  7  1  0
  7  8  2  0
  7  9  1  0
  9 10  2  0
  9 14  1  0
 10 11  1  0
 11 12  2  0
 12 13  1  0
 13 14  2  0
 14 15  1  0
 15 16  1  0
 16 17  2  0
 16 18  1  0
 18 19  1  0
 19 20  2  0
 19 24  1  0
 20 21  1  0
 21 22  2  0
 22 23  1  0
 23 24  2  0
M  END
