WPC0167_minimised.pdb
     RDKit          3D

 17 18  0  0  0  0  0  0  0  0999 V2000
    8.7800    0.3110   20.0150 O   0  0  0  0  0  0  0  0  0  0  0  0
    8.1330    0.1340   21.0250 C   0  0  0  0  0  0  0  0  0  0  0  0
    8.7030   -0.0620   22.2520 N   0  0  0  0  0  0  0  0  0  0  0  0
   10.0890    0.0700   22.4910 C   0  0  0  0  0  0  0  0  0  0  0  0
   10.9990   -0.8180   21.8940 C   0  0  0  0  0  0  0  0  0  0  0  0
   12.3820   -0.6130   22.0330 C   0  0  0  0  0  0  0  0  0  0  0  0
   12.8560    0.4840   22.7720 C   0  0  0  0  0  0  0  0  0  0  0  0
   11.9450    1.3690   23.3710 C   0  0  0  0  0  0  0  0  0  0  0  0
   10.5630    1.1590   23.2360 C   0  0  0  0  0  0  0  0  0  0  0  0
    6.7650    0.1580   21.0060 N   0  0  0  0  0  0  0  0  0  0  0  0
    6.0090    0.6210   19.8950 C   0  0  0  0  0  0  0  0  0  0  0  0
    6.2870    0.1770   18.5820 C   0  0  0  0  0  0  0  0  0  0  0  0
    5.7110    0.6950   17.4770 N   0  0  0  0  0  0  0  0  0  0  0  0
    4.8420    1.7150   17.6550 C   0  0  0  0  0  0  0  0  0  0  0  0
    4.4650    2.1850   18.9200 C   0  0  0  0  0  0  0  0  0  0  0  0
    5.0600    1.6410   20.0630 C   0  0  0  0  0  0  0  0  0  0  0  0
    4.6900    2.3210   21.6340 Cl  0  0  0  0  0  0  0  0  0  0  0  0
  1  2  2  0
  2  3  1  0
  2 10  1  0
  3  4  1  0
  4  5  2  0
  4  9  1  0
  5  6  1  0
  6  7  2  0
  7  8  1  0
  8  9  2  0
 10 11  1  0
 11 12  2  0
 11 16  1  0
 12 13  1  0
 13 14  2  0
 14 15  1  0
 15 16  2  0
 16 17  1  0
M  END
