WPC0819_minimised.pdb
     RDKit          3D

 24 26  0  0  0  0  0  0  0  0999 V2000
    8.5110   -0.0290   19.8360 O   0  0  0  0  0  0  0  0  0  0  0  0
    7.7710   -0.1750   20.7880 C   0  0  0  0  0  0  0  0  0  0  0  0
    8.1940   -0.4280   22.0630 N   0  0  0  0  0  0  0  0  0  0  0  0
    9.5300   -0.3020   22.4880 C   0  0  0  0  0  0  0  0  0  0  0  0
   10.5480   -1.0620   21.8920 C   0  0  0  0  0  0  0  0  0  0  0  0
   11.8910   -0.8270   22.2270 C   0  0  0  0  0  0  0  0  0  0  0  0
   12.2180    0.1770   23.1550 C   0  0  0  0  0  0  0  0  0  0  0  0
   13.6640    0.4770   23.5030 C   0  0  0  0  0  0  0  0  0  0  0  0
   14.3060    1.3950   22.5650 N   0  0  0  0  0  0  0  0  0  0  0  0
   14.1100    2.7480   22.4880 C   0  0  0  0  0  0  0  0  0  0  0  0
   14.9260    3.4800   21.6330 C   0  0  0  0  0  0  0  0  0  0  0  0
   14.7570    4.8590   21.5360 C   0  0  0  0  0  0  0  0  0  0  0  0
   13.7740    5.4450   22.3360 C   0  0  0  0  0  0  0  0  0  0  0  0
   12.9770    4.6280   23.1520 C   0  0  0  0  0  0  0  0  0  0  0  0
   13.1490    3.2990   23.2360 N   0  0  0  0  0  0  0  0  0  0  0  0
   11.1880    0.8980   23.7870 C   0  0  0  0  0  0  0  0  0  0  0  0
    9.8480    0.6600   23.4540 C   0  0  0  0  0  0  0  0  0  0  0  0
    6.4130   -0.0440   20.6920 N   0  0  0  0  0  0  0  0  0  0  0  0
    5.7360    0.5180   19.5830 C   0  0  0  0  0  0  0  0  0  0  0  0
    4.7840    1.5190   19.8120 C   0  0  0  0  0  0  0  0  0  0  0  0
    4.2300    2.1580   18.6960 C   0  0  0  0  0  0  0  0  0  0  0  0
    4.6460    1.7890   17.4090 C   0  0  0  0  0  0  0  0  0  0  0  0
    5.5260    0.7880   17.1770 N   0  0  0  0  0  0  0  0  0  0  0  0
    6.0700    0.1830   18.2520 C   0  0  0  0  0  0  0  0  0  0  0  0
  1  2  2  0
  2  3  1  0
  2 18  1  0
  3  4  1  0
  4  5  2  0
  4 17  1  0
  5  6  1  0
  6  7  2  0
  7  8  1  0
  7 16  1  0
  8  9  1  0
  9 10  1  0
 10 11  2  0
 10 15  1  0
 11 12  1  0
 12 13  2  0
 13 14  1  0
 14 15  2  0
 16 17  2  0
 18 19  1  0
 19 20  2  0
 19 24  1  0
 20 21  1  0
 21 22  2  0
 22 23  1  0
 23 24  2  0
M  END
