WPC0749_minimised.pdb
     RDKit          3D

 20 21  0  0  1  0  0  0  0  0999 V2000
   14.1340   -2.0310   23.6120 N   0  0  0  0  0  0  0  0  0  0  0  0
   13.3870   -0.8060   23.9220 C   0  0  1  0  0  0  0  0  0  0  0  0
   13.9600    0.4060   23.1490 C   0  0  0  0  0  0  0  0  0  0  0  0
   13.1980    1.5800   23.4310 O   0  0  0  0  0  0  0  0  0  0  0  0
   11.9110   -0.9400   23.5790 C   0  0  0  0  0  0  0  0  0  0  0  0
   11.5240   -1.4670   22.3360 C   0  0  0  0  0  0  0  0  0  0  0  0
   10.1890   -1.3960   21.9280 C   0  0  0  0  0  0  0  0  0  0  0  0
    9.2330   -0.7710   22.7410 C   0  0  0  0  0  0  0  0  0  0  0  0
    7.9390   -0.5280   22.2380 N   0  0  0  0  0  0  0  0  0  0  0  0
    7.6670   -0.0160   20.9970 C   0  0  0  0  0  0  0  0  0  0  0  0
    8.5040    0.2590   20.1580 O   0  0  0  0  0  0  0  0  0  0  0  0
    6.3290    0.1600   20.7870 N   0  0  0  0  0  0  0  0  0  0  0  0
    5.7440    0.7200   19.6280 C   0  0  0  0  0  0  0  0  0  0  0  0
    4.7500    1.6940   19.7710 C   0  0  0  0  0  0  0  0  0  0  0  0
    4.2690    2.3040   18.6070 C   0  0  0  0  0  0  0  0  0  0  0  0
    4.7970    1.9380   17.3610 C   0  0  0  0  0  0  0  0  0  0  0  0
    5.7180    0.9580   17.2080 N   0  0  0  0  0  0  0  0  0  0  0  0
    6.1900    0.3810   18.3320 C   0  0  0  0  0  0  0  0  0  0  0  0
    9.5950   -0.3100   24.0150 C   0  0  0  0  0  0  0  0  0  0  0  0
   10.9310   -0.4010   24.4360 C   0  0  0  0  0  0  0  0  0  0  0  0
  2  1  1  6
  2  3  1  0
  2  5  1  0
  3  4  1  0
  5 20  2  0
  5  6  1  0
  6  7  2  0
  7  8  1  0
  8  9  1  0
  8 19  2  0
  9 10  1  0
 10 11  2  0
 10 12  1  0
 12 13  1  0
 13 14  2  0
 13 18  1  0
 14 15  1  0
 15 16  2  0
 16 17  1  0
 17 18  2  0
 19 20  1  0
M  END
