WPC0653_minimised.pdb
     RDKit          3D

 22 23  0  0  0  0  0  0  0  0999 V2000
    8.6610    0.3550   19.9490 O   0  0  0  0  0  0  0  0  0  0  0  0
    7.9670    0.1140   20.9180 C   0  0  0  0  0  0  0  0  0  0  0  0
    8.4660   -0.1390   22.1680 N   0  0  0  0  0  0  0  0  0  0  0  0
    9.8310   -0.0150   22.5040 C   0  0  0  0  0  0  0  0  0  0  0  0
   10.8060   -0.6080   21.6870 C   0  0  0  0  0  0  0  0  0  0  0  0
   12.1620   -0.3220   21.8780 C   0  0  0  0  0  0  0  0  0  0  0  0
   12.5500    0.5380   22.9150 C   0  0  0  0  0  0  0  0  0  0  0  0
   14.0120    0.8730   23.0990 C   0  0  0  0  0  0  0  0  0  0  0  0
   14.4960    1.9680   22.2420 N   0  0  0  0  0  0  0  0  0  0  0  0
   14.1490    3.3530   22.6070 C   0  0  0  0  0  0  0  0  0  0  0  0
   12.7800    3.8310   22.0850 C   0  0  0  0  0  0  0  0  0  0  0  0
   12.2060    4.9670   22.9510 C   0  0  0  0  0  0  0  0  0  0  0  0
   11.7660    4.4400   24.1990 O   0  0  0  0  0  0  0  0  0  0  0  0
   11.5820    1.0550   23.7960 C   0  0  0  0  0  0  0  0  0  0  0  0
   10.2200    0.7880   23.5850 C   0  0  0  0  0  0  0  0  0  0  0  0
    6.6010    0.1100   20.8440 N   0  0  0  0  0  0  0  0  0  0  0  0
    5.8740    0.5770   19.7220 C   0  0  0  0  0  0  0  0  0  0  0  0
    4.8970    1.5620   19.9100 C   0  0  0  0  0  0  0  0  0  0  0  0
    4.3180    2.1290   18.7690 C   0  0  0  0  0  0  0  0  0  0  0  0
    4.7410    1.7160   17.4980 C   0  0  0  0  0  0  0  0  0  0  0  0
    5.6400    0.7240   17.3040 N   0  0  0  0  0  0  0  0  0  0  0  0
    6.2030    0.1840   18.4040 C   0  0  0  0  0  0  0  0  0  0  0  0
  1  2  2  0
  2  3  1  0
  2 16  1  0
  3  4  1  0
  4  5  2  0
  4 15  1  0
  5  6  1  0
  6  7  2  0
  7  8  1  0
  7 14  1  0
  8  9  1  0
  9 10  1  0
 10 11  1  0
 11 12  1  0
 12 13  1  0
 14 15  2  0
 16 17  1  0
 17 18  2  0
 17 22  1  0
 18 19  1  0
 19 20  2  0
 20 21  1  0
 21 22  2  0
M  END
