WPC0585_minimised.pdb
     RDKit          3D

 20 21  0  0  1  0  0  0  0  0999 V2000
    8.4020    0.3400   20.1220 O   0  0  0  0  0  0  0  0  0  0  0  0
    7.5800    0.0880   20.9840 C   0  0  0  0  0  0  0  0  0  0  0  0
    7.8760   -0.3960   22.2320 N   0  0  0  0  0  0  0  0  0  0  0  0
    9.1770   -0.6330   22.7220 C   0  0  0  0  0  0  0  0  0  0  0  0
   10.1330   -1.2400   21.8960 C   0  0  0  0  0  0  0  0  0  0  0  0
   11.4710   -1.3100   22.2980 C   0  0  0  0  0  0  0  0  0  0  0  0
   11.8590   -0.8070   23.5490 C   0  0  0  0  0  0  0  0  0  0  0  0
   13.3390   -0.6910   23.8810 C   0  0  1  0  0  0  0  0  0  0  0  0
   14.0130   -1.9000   23.5390 O   0  0  0  0  0  0  0  0  0  0  0  0
   13.9420    0.4930   23.0970 C   0  0  0  0  0  0  0  0  0  0  0  0
   13.2390    1.6980   23.4030 O   0  0  0  0  0  0  0  0  0  0  0  0
   10.8830   -0.2790   24.4170 C   0  0  0  0  0  0  0  0  0  0  0  0
    9.5440   -0.1870   24.0000 C   0  0  0  0  0  0  0  0  0  0  0  0
    6.2400    0.2580   20.7900 N   0  0  0  0  0  0  0  0  0  0  0  0
    5.6380    0.7870   19.6240 C   0  0  0  0  0  0  0  0  0  0  0  0
    4.6470    1.7660   19.7550 C   0  0  0  0  0  0  0  0  0  0  0  0
    4.1540    2.3490   18.5820 C   0  0  0  0  0  0  0  0  0  0  0  0
    4.6670    1.9510   17.3390 C   0  0  0  0  0  0  0  0  0  0  0  0
    5.5830    0.9650   17.1990 N   0  0  0  0  0  0  0  0  0  0  0  0
    6.0670    0.4140   18.3310 C   0  0  0  0  0  0  0  0  0  0  0  0
  1  2  2  0
  2  3  1  0
  2 14  1  0
  3  4  1  0
  4  5  2  0
  4 13  1  0
  5  6  1  0
  6  7  2  0
  7  8  1  0
  7 12  1  0
  8 10  1  0
  8  9  1  6
 10 11  1  0
 12 13  2  0
 14 15  1  0
 15 16  2  0
 15 20  1  0
 16 17  1  0
 17 18  2  0
 18 19  1  0
 19 20  2  0
M  END
