WPC0686_minimised.pdb
     RDKit          3D

 24 26  0  0  0  0  0  0  0  0999 V2000
    8.6440    0.2480   19.9510 O   0  0  0  0  0  0  0  0  0  0  0  0
    7.9310   -0.0640   20.8850 C   0  0  0  0  0  0  0  0  0  0  0  0
    8.3960   -0.3380   22.1430 N   0  0  0  0  0  0  0  0  0  0  0  0
    9.7080   -0.0340   22.5600 C   0  0  0  0  0  0  0  0  0  0  0  0
   10.8090   -0.4550   21.7970 C   0  0  0  0  0  0  0  0  0  0  0  0
   12.0840    0.0640   22.0570 C   0  0  0  0  0  0  0  0  0  0  0  0
   12.2530    0.9980   23.0870 C   0  0  0  0  0  0  0  0  0  0  0  0
   13.8340    1.7660   23.2990 S   0  0  0  0  0  0  0  0  0  0  0  0
   13.7220    3.4480   22.5280 C   0  0  0  0  0  0  0  0  0  0  0  0
   12.7530    4.2500   23.2950 N   0  0  0  0  0  0  0  0  0  0  0  0
   11.3680    4.3510   23.1560 C   0  0  0  0  0  0  0  0  0  0  0  0
   11.0330    5.4430   23.9150 C   0  0  0  0  0  0  0  0  0  0  0  0
   12.1830    6.1090   24.4760 C   0  0  0  0  0  0  0  0  0  0  0  0
   12.2360    7.1510   25.0960 O   0  0  0  0  0  0  0  0  0  0  0  0
   13.2350    5.3360   24.0810 N   0  0  0  0  0  0  0  0  0  0  0  0
   11.1790    1.3240   23.9310 C   0  0  0  0  0  0  0  0  0  0  0  0
    9.9000    0.8170   23.6590 C   0  0  0  0  0  0  0  0  0  0  0  0
    6.5690   -0.1050   20.7750 N   0  0  0  0  0  0  0  0  0  0  0  0
    5.8620    0.4320   19.6730 C   0  0  0  0  0  0  0  0  0  0  0  0
    4.9000    1.4230   19.9030 C   0  0  0  0  0  0  0  0  0  0  0  0
    4.3410    2.0600   18.7870 C   0  0  0  0  0  0  0  0  0  0  0  0
    4.7660    1.7030   17.4990 C   0  0  0  0  0  0  0  0  0  0  0  0
    5.6560    0.7120   17.2660 N   0  0  0  0  0  0  0  0  0  0  0  0
    6.2010    0.1070   18.3410 C   0  0  0  0  0  0  0  0  0  0  0  0
  1  2  2  0
  2  3  1  0
  2 18  1  0
  3  4  1  0
  4  5  2  0
  4 17  1  0
  5  6  1  0
  6  7  2  0
  7  8  1  0
  7 16  1  0
  8  9  1  0
  9 10  1  0
 10 11  1  0
 10 15  1  0
 11 12  2  0
 12 13  1  0
 13 14  2  0
 13 15  1  0
 16 17  2  0
 18 19  1  0
 19 20  2  0
 19 24  1  0
 20 21  1  0
 21 22  2  0
 22 23  1  0
 23 24  2  0
M  END
