WPC0525_minimised.pdb
     RDKit          3D

 21 22  0  0  1  0  0  0  0  0999 V2000
   13.9520   -1.9800   23.4410 N   0  0  0  0  0  0  0  0  0  0  0  0
   13.1740   -0.8220   23.9470 C   0  0  1  0  0  0  0  0  0  0  0  0
   13.7250    0.5510   23.4780 C   0  0  0  0  0  0  0  0  0  0  0  0
   14.8360    0.7000   23.0150 O   0  0  0  0  0  0  0  0  0  0  0  0
   12.8360    1.5630   23.4940 O   0  0  0  0  0  0  0  0  0  0  0  0
   11.7010   -0.9170   23.5660 C   0  0  0  0  0  0  0  0  0  0  0  0
   11.3390   -1.3310   22.2750 C   0  0  0  0  0  0  0  0  0  0  0  0
   10.0120   -1.2180   21.8490 C   0  0  0  0  0  0  0  0  0  0  0  0
    9.0420   -0.6550   22.6900 C   0  0  0  0  0  0  0  0  0  0  0  0
    7.7520   -0.3770   22.1910 N   0  0  0  0  0  0  0  0  0  0  0  0
    7.4740    0.1350   20.9500 C   0  0  0  0  0  0  0  0  0  0  0  0
    8.3050    0.3880   20.0970 O   0  0  0  0  0  0  0  0  0  0  0  0
    6.1360    0.3250   20.7500 N   0  0  0  0  0  0  0  0  0  0  0  0
    5.5430    0.8600   19.5830 C   0  0  0  0  0  0  0  0  0  0  0  0
    4.5410    1.8280   19.7130 C   0  0  0  0  0  0  0  0  0  0  0  0
    4.0450    2.4090   18.5410 C   0  0  0  0  0  0  0  0  0  0  0  0
    4.5670    2.0210   17.2990 C   0  0  0  0  0  0  0  0  0  0  0  0
    5.4940    1.0460   17.1580 N   0  0  0  0  0  0  0  0  0  0  0  0
    5.9820    0.4970   18.2890 C   0  0  0  0  0  0  0  0  0  0  0  0
    9.3810   -0.3090   24.0060 C   0  0  0  0  0  0  0  0  0  0  0  0
   10.7070   -0.4490   24.4500 C   0  0  0  0  0  0  0  0  0  0  0  0
  2  1  1  6
  2  3  1  0
  2  6  1  0
  3  4  2  0
  3  5  1  0
  6 21  2  0
  6  7  1  0
  7  8  2  0
  8  9  1  0
  9 10  1  0
  9 20  2  0
 10 11  1  0
 11 12  2  0
 11 13  1  0
 13 14  1  0
 14 15  2  0
 14 19  1  0
 15 16  1  0
 16 17  2  0
 17 18  1  0
 18 19  2  0
 20 21  1  0
M  END
