WPC0320_minimised.pdb
     RDKit          3D

 22 24  0  0  0  0  0  0  0  0999 V2000
    9.2660    1.0050   20.6540 O   0  0  0  0  0  0  0  0  0  0  0  0
    8.8030    0.1900   21.4270 C   0  0  0  0  0  0  0  0  0  0  0  0
    7.4880   -0.1910   21.3090 N   0  0  0  0  0  0  0  0  0  0  0  0
    6.6400    0.2500   20.2550 C   0  0  0  0  0  0  0  0  0  0  0  0
    5.6210    1.1790   20.5060 C   0  0  0  0  0  0  0  0  0  0  0  0
    4.9240    1.7030   19.4040 C   0  0  0  0  0  0  0  0  0  0  0  0
    5.2540    1.2770   18.1060 C   0  0  0  0  0  0  0  0  0  0  0  0
    6.2090    0.3540   17.8560 N   0  0  0  0  0  0  0  0  0  0  0  0
    6.9040   -0.1140   18.9160 C   0  0  0  0  0  0  0  0  0  0  0  0
    9.5690   -0.4060   22.4170 N   0  0  0  0  0  0  0  0  0  0  0  0
   10.9520   -0.1060   22.5170 C   0  0  0  0  0  0  0  0  0  0  0  0
   11.9070   -1.0410   22.0830 C   0  0  0  0  0  0  0  0  0  0  0  0
   13.2740   -0.7150   22.0910 C   0  0  0  0  0  0  0  0  0  0  0  0
   13.6880    0.5460   22.5500 C   0  0  0  0  0  0  0  0  0  0  0  0
   12.7360    1.4810   22.9830 C   0  0  0  0  0  0  0  0  0  0  0  0
   11.3700    1.1580   22.9640 C   0  0  0  0  0  0  0  0  0  0  0  0
    9.1150   -1.4030   23.3180 C   0  0  0  0  0  0  0  0  0  0  0  0
    8.9640   -2.7310   22.8820 C   0  0  0  0  0  0  0  0  0  0  0  0
    8.6130   -3.7380   23.7970 C   0  0  0  0  0  0  0  0  0  0  0  0
    8.3980   -3.4150   25.1480 C   0  0  0  0  0  0  0  0  0  0  0  0
    8.5410   -2.0860   25.5840 C   0  0  0  0  0  0  0  0  0  0  0  0
    8.9070   -1.0830   24.6710 C   0  0  0  0  0  0  0  0  0  0  0  0
  1  2  2  0
  2  3  1  0
  2 10  1  0
  3  4  1  0
  4  5  2  0
  4  9  1  0
  5  6  1  0
  6  7  2  0
  7  8  1  0
  8  9  2  0
 10 17  1  0
 10 11  1  0
 11 12  2  0
 11 16  1  0
 12 13  1  0
 13 14  2  0
 14 15  1  0
 15 16  2  0
 17 18  2  0
 17 22  1  0
 18 19  1  0
 19 20  2  0
 20 21  1  0
 21 22  2  0
M  END
