WPC0495_minimised.pdb
     RDKit          3D

 24 25  0  0  0  0  0  0  0  0999 V2000
   14.1520    6.0480   21.5320 N   0  0  0  0  0  0  0  0  0  0  0  0
   13.4640    5.3330   22.2920 C   0  0  0  0  0  0  0  0  0  0  0  0
   13.0190    5.8730   23.4380 N   0  0  0  0  0  0  0  0  0  0  0  0
   13.7460    4.0050   22.3950 N   0  0  0  0  0  0  0  0  0  0  0  0
   13.1690    3.0750   23.1970 C   0  0  0  0  0  0  0  0  0  0  0  0
   12.3120    3.3160   24.0250 O   0  0  0  0  0  0  0  0  0  0  0  0
   13.7450    1.8480   23.0310 N   0  0  0  0  0  0  0  0  0  0  0  0
   13.3600    0.6420   23.7550 C   0  0  0  0  0  0  0  0  0  0  0  0
   11.9730    0.1790   23.3750 C   0  0  0  0  0  0  0  0  0  0  0  0
   11.7810   -0.6360   22.2480 C   0  0  0  0  0  0  0  0  0  0  0  0
   10.4800   -0.9640   21.8460 C   0  0  0  0  0  0  0  0  0  0  0  0
    9.3750   -0.4660   22.5520 C   0  0  0  0  0  0  0  0  0  0  0  0
    8.0730   -0.6060   22.0350 N   0  0  0  0  0  0  0  0  0  0  0  0
    7.7160   -0.2560   20.7610 C   0  0  0  0  0  0  0  0  0  0  0  0
    8.5010   -0.0190   19.8620 O   0  0  0  0  0  0  0  0  0  0  0  0
    6.3620   -0.1490   20.6100 N   0  0  0  0  0  0  0  0  0  0  0  0
    5.7250    0.4650   19.5080 C   0  0  0  0  0  0  0  0  0  0  0  0
    4.7610    1.4520   19.7470 C   0  0  0  0  0  0  0  0  0  0  0  0
    4.2490    2.1420   18.6420 C   0  0  0  0  0  0  0  0  0  0  0  0
    4.7230    1.8420   17.3570 C   0  0  0  0  0  0  0  0  0  0  0  0
    5.6180    0.8570   17.1130 N   0  0  0  0  0  0  0  0  0  0  0  0
    6.1160    0.1990   18.1780 C   0  0  0  0  0  0  0  0  0  0  0  0
    9.5670    0.2900   23.7150 C   0  0  0  0  0  0  0  0  0  0  0  0
   10.8670    0.6080   24.1300 C   0  0  0  0  0  0  0  0  0  0  0  0
  1  2  2  0
  2  3  1  0
  2  4  1  0
  4  5  1  0
  5  6  2  0
  5  7  1  0
  7  8  1  0
  8  9  1  0
  9 24  2  0
  9 10  1  0
 10 11  2  0
 11 12  1  0
 12 13  1  0
 12 23  2  0
 13 14  1  0
 14 15  2  0
 14 16  1  0
 16 17  1  0
 17 18  2  0
 17 22  1  0
 18 19  1  0
 19 20  2  0
 20 21  1  0
 21 22  2  0
 23 24  1  0
M  END
