WPC0506_minimised.pdb
     RDKit          3D

 24 26  0  0  0  0  0  0  0  0999 V2000
    8.4850    0.1340   19.9080 O   0  0  0  0  0  0  0  0  0  0  0  0
    7.7500   -0.2200   20.8110 C   0  0  0  0  0  0  0  0  0  0  0  0
    8.1790   -0.5990   22.0560 N   0  0  0  0  0  0  0  0  0  0  0  0
    9.4840   -0.3600   22.5360 C   0  0  0  0  0  0  0  0  0  0  0  0
   10.5960   -0.6610   21.7350 C   0  0  0  0  0  0  0  0  0  0  0  0
   11.8580   -0.1550   22.0620 C   0  0  0  0  0  0  0  0  0  0  0  0
   12.0130    0.6290   23.2140 C   0  0  0  0  0  0  0  0  0  0  0  0
   13.3320    1.3250   23.4640 C   0  0  0  0  0  0  0  0  0  0  0  0
   13.4410    2.6890   22.7370 C   0  0  0  0  0  0  0  0  0  0  0  0
   12.5400    3.8090   23.2550 C   0  0  0  0  0  0  0  0  0  0  0  0
   11.1520    3.8180   23.0490 C   0  0  0  0  0  0  0  0  0  0  0  0
   10.3870    4.9080   23.4960 C   0  0  0  0  0  0  0  0  0  0  0  0
   10.9230    5.9640   24.1420 N   0  0  0  0  0  0  0  0  0  0  0  0
   12.2570    5.9770   24.3140 C   0  0  0  0  0  0  0  0  0  0  0  0
   13.0920    4.9390   23.8700 C   0  0  0  0  0  0  0  0  0  0  0  0
   10.9280    0.8160   24.0900 C   0  0  0  0  0  0  0  0  0  0  0  0
    9.6580    0.3320   23.7430 C   0  0  0  0  0  0  0  0  0  0  0  0
    6.3900   -0.2180   20.6790 N   0  0  0  0  0  0  0  0  0  0  0  0
    5.7140    0.3800   19.5890 C   0  0  0  0  0  0  0  0  0  0  0  0
    4.7640    1.3770   19.8380 C   0  0  0  0  0  0  0  0  0  0  0  0
    4.2430    2.0680   18.7360 C   0  0  0  0  0  0  0  0  0  0  0  0
    4.6900    1.7520   17.4450 C   0  0  0  0  0  0  0  0  0  0  0  0
    5.5700    0.7560   17.1920 N   0  0  0  0  0  0  0  0  0  0  0  0
    6.0810    0.1020   18.2540 C   0  0  0  0  0  0  0  0  0  0  0  0
  1  2  2  0
  2  3  1  0
  2 18  1  0
  3  4  1  0
  4  5  2  0
  4 17  1  0
  5  6  1  0
  6  7  2  0
  7  8  1  0
  7 16  1  0
  8  9  1  0
  9 10  1  0
 10 11  2  0
 10 15  1  0
 11 12  1  0
 12 13  2  0
 13 14  1  0
 14 15  2  0
 16 17  2  0
 18 19  1  0
 19 20  2  0
 19 24  1  0
 20 21  1  0
 21 22  2  0
 22 23  1  0
 23 24  2  0
M  END
