WPC0104_minimised.pdb
     RDKit          3D

 24 26  0  0  0  0  0  0  0  0999 V2000
    9.1400    0.9450   20.7350 O   0  0  0  0  0  0  0  0  0  0  0  0
    8.9250   -0.1570   21.1950 C   0  0  0  0  0  0  0  0  0  0  0  0
    9.8090   -0.8300   21.9930 N   0  0  0  0  0  0  0  0  0  0  0  0
   11.1310   -0.4110   22.2540 C   0  0  0  0  0  0  0  0  0  0  0  0
   12.1850   -1.2680   21.9210 C   0  0  0  0  0  0  0  0  0  0  0  0
   13.5150   -0.8530   22.0850 C   0  0  0  0  0  0  0  0  0  0  0  0
   13.7890    0.4190   22.6140 C   0  0  0  0  0  0  0  0  0  0  0  0
   12.7330    1.2730   22.9670 C   0  0  0  0  0  0  0  0  0  0  0  0
   11.4030    0.8620   22.7800 C   0  0  0  0  0  0  0  0  0  0  0  0
    7.7840   -0.8580   20.9010 N   0  0  0  0  0  0  0  0  0  0  0  0
    6.8050   -0.3890   19.9840 C   0  0  0  0  0  0  0  0  0  0  0  0
    7.1600   -0.1680   18.6350 C   0  0  0  0  0  0  0  0  0  0  0  0
    6.3460    0.4070   17.7290 N   0  0  0  0  0  0  0  0  0  0  0  0
    5.1600    0.8710   18.1700 C   0  0  0  0  0  0  0  0  0  0  0  0
    4.7160    0.6810   19.4880 C   0  0  0  0  0  0  0  0  0  0  0  0
    5.5360    0.0220   20.4250 C   0  0  0  0  0  0  0  0  0  0  0  0
    5.1120   -0.1320   21.8420 C   0  0  0  0  0  0  0  0  0  0  0  0
    4.4510    0.7680   22.6090 C   0  0  0  0  0  0  0  0  0  0  0  0
    4.0670    2.1350   22.2100 C   0  0  0  0  0  0  0  0  0  0  0  0
    5.0510    2.9960   21.6940 C   0  0  0  0  0  0  0  0  0  0  0  0
    4.6900    4.2410   21.1650 C   0  0  0  0  0  0  0  0  0  0  0  0
    3.3450    4.6300   21.1440 C   0  0  0  0  0  0  0  0  0  0  0  0
    2.3600    3.7890   21.6880 C   0  0  0  0  0  0  0  0  0  0  0  0
    2.7220    2.5440   22.2290 C   0  0  0  0  0  0  0  0  0  0  0  0
  1  2  2  0
  2  3  1  0
  2 10  1  0
  3  4  1  0
  4  5  2  0
  4  9  1  0
  5  6  1  0
  6  7  2  0
  7  8  1  0
  8  9  2  0
 10 11  1  0
 11 12  2  0
 11 16  1  0
 12 13  1  0
 13 14  2  0
 14 15  1  0
 15 16  2  0
 16 17  1  0
 17 18  2  0
 18 19  1  0
 19 20  2  0
 19 24  1  0
 20 21  1  0
 21 22  2  0
 22 23  1  0
 23 24  2  0
M  END
