WPC0580_minimised.pdb
     RDKit          3D

 21 22  0  0  0  0  0  0  0  0999 V2000
   12.4080    3.5080   22.5480 N   0  0  0  0  0  0  0  0  0  0  0  0
   13.7210    3.2580   22.8030 C   0  0  0  0  0  0  0  0  0  0  0  0
   14.4080    4.1420   23.2750 O   0  0  0  0  0  0  0  0  0  0  0  0
   14.2410    1.8550   22.4810 C   0  0  0  0  0  0  0  0  0  0  0  0
   13.7100    0.7190   23.3820 C   0  0  0  0  0  0  0  0  0  0  0  0
   12.2540    0.3910   23.1240 C   0  0  0  0  0  0  0  0  0  0  0  0
   11.9120   -0.4740   22.0730 C   0  0  0  0  0  0  0  0  0  0  0  0
   10.5630   -0.7260   21.7930 C   0  0  0  0  0  0  0  0  0  0  0  0
    9.5550   -0.0980   22.5380 C   0  0  0  0  0  0  0  0  0  0  0  0
    8.2120   -0.1960   22.1250 N   0  0  0  0  0  0  0  0  0  0  0  0
    7.7830    0.0890   20.8560 C   0  0  0  0  0  0  0  0  0  0  0  0
    8.5270    0.3250   19.9230 O   0  0  0  0  0  0  0  0  0  0  0  0
    6.4220    0.1240   20.7380 N   0  0  0  0  0  0  0  0  0  0  0  0
    5.7330    0.6300   19.6110 C   0  0  0  0  0  0  0  0  0  0  0  0
    4.7460    1.6040   19.8030 C   0  0  0  0  0  0  0  0  0  0  0  0
    4.1930    2.2010   18.6640 C   0  0  0  0  0  0  0  0  0  0  0  0
    4.6470    1.8220   17.3930 C   0  0  0  0  0  0  0  0  0  0  0  0
    5.5580    0.8420   17.1950 N   0  0  0  0  0  0  0  0  0  0  0  0
    6.0990    0.2770   18.2930 C   0  0  0  0  0  0  0  0  0  0  0  0
    9.8930    0.7180   23.6250 C   0  0  0  0  0  0  0  0  0  0  0  0
   11.2430    0.9550   23.9240 C   0  0  0  0  0  0  0  0  0  0  0  0
  1  2  1  0
  2  3  2  0
  2  4  1  0
  4  5  1  0
  5  6  1  0
  6 21  2  0
  6  7  1  0
  7  8  2  0
  8  9  1  0
  9 10  1  0
  9 20  2  0
 10 11  1  0
 11 12  2  0
 11 13  1  0
 13 14  1  0
 14 15  2  0
 14 19  1  0
 15 16  1  0
 16 17  2  0
 17 18  1  0
 18 19  2  0
 20 21  1  0
M  END
