WPC0190_minimised.pdb
     RDKit          3D

 24 25  0  0  0  0  0  0  0  0999 V2000
    2.4070    4.2040   25.0250 C   0  0  0  0  0  0  0  0  0  0  0  0
    3.1900    3.3770   24.1610 O   0  0  0  0  0  0  0  0  0  0  0  0
    3.4820    2.1190   24.5440 C   0  0  0  0  0  0  0  0  0  0  0  0
    2.9070    1.5010   25.4180 O   0  0  0  0  0  0  0  0  0  0  0  0
    4.1780    1.4330   23.6120 N   0  0  0  0  0  0  0  0  0  0  0  0
    4.8430    1.8000   22.4820 C   0  0  0  0  0  0  0  0  0  0  0  0
    5.3320    3.3290   22.0570 S   0  0  0  0  0  0  0  0  0  0  0  0
    5.0540    0.6760   21.7270 N   0  0  0  0  0  0  0  0  0  0  0  0
    5.5180    0.6130   20.3960 C   0  0  0  0  0  0  0  0  0  0  0  0
    4.7830    1.2200   19.3680 C   0  0  0  0  0  0  0  0  0  0  0  0
    5.2340    1.1180   18.0450 C   0  0  0  0  0  0  0  0  0  0  0  0
    6.3440    0.4290   17.7060 N   0  0  0  0  0  0  0  0  0  0  0  0
    7.0870   -0.0890   18.7060 C   0  0  0  0  0  0  0  0  0  0  0  0
    6.7120   -0.0480   20.0670 C   0  0  0  0  0  0  0  0  0  0  0  0
    7.5960   -0.5330   21.0750 N   0  0  0  0  0  0  0  0  0  0  0  0
    8.8340    0.0110   21.2850 C   0  0  0  0  0  0  0  0  0  0  0  0
    9.2180    0.9610   20.6420 O   0  0  0  0  0  0  0  0  0  0  0  0
    9.6140   -0.6250   22.2120 N   0  0  0  0  0  0  0  0  0  0  0  0
   10.9710   -0.3070   22.4290 C   0  0  0  0  0  0  0  0  0  0  0  0
   11.9610   -1.2460   22.1080 C   0  0  0  0  0  0  0  0  0  0  0  0
   13.3190   -0.8990   22.1950 C   0  0  0  0  0  0  0  0  0  0  0  0
   13.6860    0.3820   22.6410 C   0  0  0  0  0  0  0  0  0  0  0  0
   12.6950    1.3160   22.9820 C   0  0  0  0  0  0  0  0  0  0  0  0
   11.3390    0.9750   22.8680 C   0  0  0  0  0  0  0  0  0  0  0  0
  1  2  1  0
  2  3  1  0
  3  4  2  0
  3  5  1  0
  5  6  1  0
  6  7  2  0
  6  8  1  0
  8  9  1  0
  9 10  2  0
  9 14  1  0
 10 11  1  0
 11 12  2  0
 12 13  1  0
 13 14  2  0
 14 15  1  0
 15 16  1  0
 16 17  2  0
 16 18  1  0
 18 19  1  0
 19 20  2  0
 19 24  1  0
 20 21  1  0
 21 22  2  0
 22 23  1  0
 23 24  2  0
M  END
