WPC0487_minimised.pdb
     RDKit          3D

 22 23  0  0  0  0  0  0  0  0999 V2000
   11.0880    2.9800   21.9380 C   0  0  0  0  0  0  0  0  0  0  0  0
   12.5010    3.4910   22.8640 S   0  0  0  0  0  0  0  0  0  0  0  0
   12.1320    3.3890   24.2600 O   0  0  0  0  0  0  0  0  0  0  0  0
   12.9670    4.7330   22.2820 O   0  0  0  0  0  0  0  0  0  0  0  0
   13.9180    1.9880   22.4230 S   0  0  0  0  0  0  0  0  0  0  0  0
   13.4930    0.7640   23.7230 C   0  0  0  0  0  0  0  0  0  0  0  0
   12.1270    0.1700   23.4650 C   0  0  0  0  0  0  0  0  0  0  0  0
   11.9130   -0.5600   22.2850 C   0  0  0  0  0  0  0  0  0  0  0  0
   10.6090   -0.9090   21.9170 C   0  0  0  0  0  0  0  0  0  0  0  0
    9.5220   -0.5130   22.7090 C   0  0  0  0  0  0  0  0  0  0  0  0
    8.2150   -0.5870   22.1900 N   0  0  0  0  0  0  0  0  0  0  0  0
    7.8520   -0.0950   20.9630 C   0  0  0  0  0  0  0  0  0  0  0  0
    8.6330    0.3320   20.1320 O   0  0  0  0  0  0  0  0  0  0  0  0
    6.5010   -0.0990   20.7670 N   0  0  0  0  0  0  0  0  0  0  0  0
    5.8490    0.4690   19.6480 C   0  0  0  0  0  0  0  0  0  0  0  0
    4.8500    1.4280   19.8530 C   0  0  0  0  0  0  0  0  0  0  0  0
    4.3090    2.0520   18.7220 C   0  0  0  0  0  0  0  0  0  0  0  0
    4.7830    1.7100   17.4480 C   0  0  0  0  0  0  0  0  0  0  0  0
    5.7150    0.7540   17.2380 N   0  0  0  0  0  0  0  0  0  0  0  0
    6.2490    0.1660   18.3280 C   0  0  0  0  0  0  0  0  0  0  0  0
    9.7420    0.1120   23.9430 C   0  0  0  0  0  0  0  0  0  0  0  0
   11.0480    0.4470   24.3280 C   0  0  0  0  0  0  0  0  0  0  0  0
  1  2  1  0
  2  3  2  0
  2  4  2  0
  2  5  1  0
  5  6  1  0
  6  7  1  0
  7 22  2  0
  7  8  1  0
  8  9  2  0
  9 10  1  0
 10 11  1  0
 10 21  2  0
 11 12  1  0
 12 13  2  0
 12 14  1  0
 14 15  1  0
 15 16  2  0
 15 20  1  0
 16 17  1  0
 17 18  2  0
 18 19  1  0
 19 20  2  0
 21 22  1  0
M  END
