WPC0816_minimised.pdb
     RDKit          3D

 22 23  0  0  0  0  0  0  0  0999 V2000
    9.7080    4.1960   22.0480 C   0  0  0  0  0  0  0  0  0  0  0  0
   11.1610    4.0470   22.1930 C   0  0  0  0  0  0  0  0  0  0  0  0
   12.3380    3.8710   22.3360 C   0  0  0  0  0  0  0  0  0  0  0  0
   13.7760    3.6070   22.5090 C   0  0  0  0  0  0  0  0  0  0  0  0
   14.2190    2.1360   22.2670 C   0  0  0  0  0  0  0  0  0  0  0  0
   13.7140    1.0810   23.2780 C   0  0  0  0  0  0  0  0  0  0  0  0
   12.2670    0.6860   23.0820 C   0  0  0  0  0  0  0  0  0  0  0  0
   11.9220   -0.1760   22.0300 C   0  0  0  0  0  0  0  0  0  0  0  0
   10.5750   -0.4690   21.7920 C   0  0  0  0  0  0  0  0  0  0  0  0
    9.5750    0.1070   22.5850 C   0  0  0  0  0  0  0  0  0  0  0  0
    8.2320   -0.0260   22.1910 N   0  0  0  0  0  0  0  0  0  0  0  0
    7.7710    0.3390   20.9560 C   0  0  0  0  0  0  0  0  0  0  0  0
    8.4720    0.8210   20.0820 O   0  0  0  0  0  0  0  0  0  0  0  0
    6.4330    0.1210   20.7920 N   0  0  0  0  0  0  0  0  0  0  0  0
    5.7020    0.5210   19.6530 C   0  0  0  0  0  0  0  0  0  0  0  0
    4.6120    1.3810   19.8180 C   0  0  0  0  0  0  0  0  0  0  0  0
    4.0080    1.8860   18.6630 C   0  0  0  0  0  0  0  0  0  0  0  0
    4.5120    1.5290   17.4050 C   0  0  0  0  0  0  0  0  0  0  0  0
    5.5270    0.6530   17.2320 N   0  0  0  0  0  0  0  0  0  0  0  0
    6.1210    0.1820   18.3470 C   0  0  0  0  0  0  0  0  0  0  0  0
    9.9160    0.9080   23.6820 C   0  0  0  0  0  0  0  0  0  0  0  0
   11.2660    1.1920   23.9330 C   0  0  0  0  0  0  0  0  0  0  0  0
  1  2  1  0
  2  3  3  0
  3  4  1  0
  4  5  1  0
  5  6  1  0
  6  7  1  0
  7 22  2  0
  7  8  1  0
  8  9  2  0
  9 10  1  0
 10 11  1  0
 10 21  2  0
 11 12  1  0
 12 13  2  0
 12 14  1  0
 14 15  1  0
 15 16  2  0
 15 20  1  0
 16 17  1  0
 17 18  2  0
 18 19  1  0
 19 20  2  0
 21 22  1  0
M  END
