WPC0277_minimised.pdb
     RDKit          3D

 22 24  0  0  0  0  0  0  0  0999 V2000
    9.1290    0.8600   20.5490 O   0  0  0  0  0  0  0  0  0  0  0  0
    8.6880    0.0750   21.3610 C   0  0  0  0  0  0  0  0  0  0  0  0
    9.5020   -0.4840   22.3140 N   0  0  0  0  0  0  0  0  0  0  0  0
   10.8780   -0.2050   22.4490 C   0  0  0  0  0  0  0  0  0  0  0  0
   11.8260   -1.1540   22.0420 C   0  0  0  0  0  0  0  0  0  0  0  0
   13.1960   -0.8450   22.0840 C   0  0  0  0  0  0  0  0  0  0  0  0
   13.6140    0.4100   22.5580 C   0  0  0  0  0  0  0  0  0  0  0  0
   12.6640    1.3550   22.9760 C   0  0  0  0  0  0  0  0  0  0  0  0
   11.2960    1.0490   22.9180 C   0  0  0  0  0  0  0  0  0  0  0  0
    7.3480   -0.3040   21.3300 N   0  0  0  0  0  0  0  0  0  0  0  0
    6.7590   -1.2730   22.2730 C   0  0  0  0  0  0  0  0  0  0  0  0
    6.9550   -0.9550   23.7340 C   0  0  0  0  0  0  0  0  0  0  0  0
    7.0590    0.3180   24.2400 C   0  0  0  0  0  0  0  0  0  0  0  0
    7.3850    0.3230   25.6270 C   0  0  0  0  0  0  0  0  0  0  0  0
    7.5030   -0.9340   26.1670 C   0  0  0  0  0  0  0  0  0  0  0  0
    7.2030   -2.1820   24.9660 S   0  0  0  0  0  0  0  0  0  0  0  0
    6.5140    0.1720   20.2730 C   0  0  0  0  0  0  0  0  0  0  0  0
    5.4660    1.0670   20.5330 C   0  0  0  0  0  0  0  0  0  0  0  0
    4.7770    1.6100   19.4360 C   0  0  0  0  0  0  0  0  0  0  0  0
    5.1390    1.2380   18.1310 C   0  0  0  0  0  0  0  0  0  0  0  0
    6.1180    0.3430   17.8690 N   0  0  0  0  0  0  0  0  0  0  0  0
    6.8060   -0.1420   18.9250 C   0  0  0  0  0  0  0  0  0  0  0  0
  1  2  2  0
  2  3  1  0
  2 10  1  0
  3  4  1  0
  4  5  2  0
  4  9  1  0
  5  6  1  0
  6  7  2  0
  7  8  1  0
  8  9  2  0
 10 17  1  0
 10 11  1  0
 11 12  1  0
 12 13  2  0
 12 16  1  0
 13 14  1  0
 14 15  2  0
 15 16  1  0
 17 18  2  0
 17 22  1  0
 18 19  1  0
 19 20  2  0
 20 21  1  0
 21 22  2  0
M  END
