WPC0392_minimised.pdb
     RDKit          3D

 24 26  0  0  0  0  0  0  0  0999 V2000
    8.5860    0.0100   19.7900 O   0  0  0  0  0  0  0  0  0  0  0  0
    7.8630   -0.1250   20.7570 C   0  0  0  0  0  0  0  0  0  0  0  0
    8.3130   -0.3370   22.0290 N   0  0  0  0  0  0  0  0  0  0  0  0
    9.6520   -0.1590   22.4270 C   0  0  0  0  0  0  0  0  0  0  0  0
   10.6750   -0.9530   21.8880 C   0  0  0  0  0  0  0  0  0  0  0  0
   12.0170   -0.6820   22.2040 C   0  0  0  0  0  0  0  0  0  0  0  0
   12.3360    0.3950   23.0500 C   0  0  0  0  0  0  0  0  0  0  0  0
   13.7770    0.7200   23.4000 C   0  0  0  0  0  0  0  0  0  0  0  0
   14.4250    1.6330   22.4500 N   0  0  0  0  0  0  0  0  0  0  0  0
   14.2580    3.0070   22.3850 C   0  0  0  0  0  0  0  0  0  0  0  0
   15.0380    3.8030   21.5060 C   0  0  0  0  0  0  0  0  0  0  0  0
   14.9030    5.1460   21.4080 N   0  0  0  0  0  0  0  0  0  0  0  0
   13.9650    5.6820   22.2160 C   0  0  0  0  0  0  0  0  0  0  0  0
   13.1810    4.8960   23.0930 C   0  0  0  0  0  0  0  0  0  0  0  0
   13.3260    3.5540   23.1900 N   0  0  0  0  0  0  0  0  0  0  0  0
   11.3010    1.1570   23.6210 C   0  0  0  0  0  0  0  0  0  0  0  0
    9.9630    0.8830   23.3080 C   0  0  0  0  0  0  0  0  0  0  0  0
    6.5030   -0.0140   20.6800 N   0  0  0  0  0  0  0  0  0  0  0  0
    5.8020    0.5290   19.5770 C   0  0  0  0  0  0  0  0  0  0  0  0
    4.8450    1.5240   19.8120 C   0  0  0  0  0  0  0  0  0  0  0  0
    4.2670    2.1480   18.7000 C   0  0  0  0  0  0  0  0  0  0  0  0
    4.6700    1.7750   17.4100 C   0  0  0  0  0  0  0  0  0  0  0  0
    5.5530    0.7790   17.1720 N   0  0  0  0  0  0  0  0  0  0  0  0
    6.1180    0.1860   18.2440 C   0  0  0  0  0  0  0  0  0  0  0  0
  1  2  2  0
  2  3  1  0
  2 18  1  0
  3  4  1  0
  4  5  2  0
  4 17  1  0
  5  6  1  0
  6  7  2  0
  7  8  1  0
  7 16  1  0
  8  9  1  0
  9 10  1  0
 10 11  2  0
 10 15  1  0
 11 12  1  0
 12 13  2  0
 13 14  1  0
 14 15  2  0
 16 17  2  0
 18 19  1  0
 19 20  2  0
 19 24  1  0
 20 21  1  0
 21 22  2  0
 22 23  1  0
 23 24  2  0
M  END
