WPC0478_minimised.pdb
     RDKit          3D

 22 23  0  0  0  0  0  0  0  0999 V2000
   11.7070    4.6240   22.7370 N   0  0  0  0  0  0  0  0  0  0  0  0
   12.4990    3.4170   22.7070 N   0  0  0  0  0  0  0  0  0  0  0  0
   13.8800    3.4060   22.7500 C   0  0  0  0  0  0  0  0  0  0  0  0
   14.4830    4.4690   23.0820 N   0  0  0  0  0  0  0  0  0  0  0  0
   14.5310    1.8680   22.2870 S   0  0  0  0  0  0  0  0  0  0  0  0
   13.7680    0.6330   23.4150 C   0  0  0  0  0  0  0  0  0  0  0  0
   12.3170    0.3350   23.1030 C   0  0  0  0  0  0  0  0  0  0  0  0
   11.9950   -0.5120   22.0320 C   0  0  0  0  0  0  0  0  0  0  0  0
   10.6510   -0.7720   21.7350 C   0  0  0  0  0  0  0  0  0  0  0  0
    9.6280   -0.1720   22.4830 C   0  0  0  0  0  0  0  0  0  0  0  0
    8.2870   -0.2910   22.0720 N   0  0  0  0  0  0  0  0  0  0  0  0
    7.8490    0.0090   20.8110 C   0  0  0  0  0  0  0  0  0  0  0  0
    8.5870    0.2750   19.8820 O   0  0  0  0  0  0  0  0  0  0  0  0
    6.4870    0.0260   20.6970 N   0  0  0  0  0  0  0  0  0  0  0  0
    5.7920    0.5560   19.5850 C   0  0  0  0  0  0  0  0  0  0  0  0
    4.8090    1.5280   19.8030 C   0  0  0  0  0  0  0  0  0  0  0  0
    4.2540    2.1530   18.6800 C   0  0  0  0  0  0  0  0  0  0  0  0
    4.7050    1.8050   17.3990 C   0  0  0  0  0  0  0  0  0  0  0  0
    5.6120    0.8280   17.1760 N   0  0  0  0  0  0  0  0  0  0  0  0
    6.1530    0.2320   18.2580 C   0  0  0  0  0  0  0  0  0  0  0  0
    9.9470    0.6330   23.5840 C   0  0  0  0  0  0  0  0  0  0  0  0
   11.2900    0.8780   23.8990 C   0  0  0  0  0  0  0  0  0  0  0  0
  1  2  1  0
  2  3  1  0
  3  4  2  0
  3  5  1  0
  5  6  1  0
  6  7  1  0
  7 22  2  0
  7  8  1  0
  8  9  2  0
  9 10  1  0
 10 11  1  0
 10 21  2  0
 11 12  1  0
 12 13  2  0
 12 14  1  0
 14 15  1  0
 15 16  2  0
 15 20  1  0
 16 17  1  0
 17 18  2  0
 18 19  1  0
 19 20  2  0
 21 22  1  0
M  END
