WPC0823_minimised.pdb
     RDKit          3D

 20 21  0  0  1  0  0  0  0  0999 V2000
   12.9490    1.9820   23.4090 C   0  0  0  0  0  0  0  0  0  0  0  0
   13.6880    0.8650   23.4210 C   0  0  0  0  0  0  0  0  0  0  0  0
   13.2650   -0.4190   24.0970 C   0  0  2  0  0  0  0  0  0  0  0  0
   14.1440   -1.4720   23.7220 O   0  0  0  0  0  0  0  0  0  0  0  0
   11.8350   -0.7480   23.7050 C   0  0  0  0  0  0  0  0  0  0  0  0
   11.5710   -1.2620   22.4250 C   0  0  0  0  0  0  0  0  0  0  0  0
   10.2550   -1.3370   21.9580 C   0  0  0  0  0  0  0  0  0  0  0  0
    9.1970   -0.8640   22.7460 C   0  0  0  0  0  0  0  0  0  0  0  0
    7.9100   -0.7140   22.1870 N   0  0  0  0  0  0  0  0  0  0  0  0
    7.6450   -0.1960   20.9460 C   0  0  0  0  0  0  0  0  0  0  0  0
    8.4800    0.0860   20.1060 O   0  0  0  0  0  0  0  0  0  0  0  0
    6.3090   -0.0070   20.7370 N   0  0  0  0  0  0  0  0  0  0  0  0
    5.7350    0.6080   19.6010 C   0  0  0  0  0  0  0  0  0  0  0  0
    4.7630    1.6000   19.7790 C   0  0  0  0  0  0  0  0  0  0  0  0
    4.2900    2.2560   18.6360 C   0  0  0  0  0  0  0  0  0  0  0  0
    4.8010    1.9150   17.3760 C   0  0  0  0  0  0  0  0  0  0  0  0
    5.7060    0.9260   17.1910 N   0  0  0  0  0  0  0  0  0  0  0  0
    6.1720    0.3040   18.2920 C   0  0  0  0  0  0  0  0  0  0  0  0
    9.4450   -0.4280   24.0570 C   0  0  0  0  0  0  0  0  0  0  0  0
   10.7630   -0.3760   24.5400 C   0  0  0  0  0  0  0  0  0  0  0  0
  1  2  2  0
  2  3  1  0
  3  4  1  6
  3  5  1  0
  5 20  2  0
  5  6  1  0
  6  7  2  0
  7  8  1  0
  8  9  1  0
  8 19  2  0
  9 10  1  0
 10 11  2  0
 10 12  1  0
 12 13  1  0
 13 14  2  0
 13 18  1  0
 14 15  1  0
 15 16  2  0
 16 17  1  0
 17 18  2  0
 19 20  1  0
M  END
