WPC0529_minimised.pdb
     RDKit          3D

 24 25  0  0  0  0  0  0  0  0999 V2000
   12.4400    6.4940   24.8590 C   0  0  0  0  0  0  0  0  0  0  0  0
   11.5340    5.4370   24.1900 C   0  0  0  0  0  0  0  0  0  0  0  0
   12.3320    4.3150   23.7630 O   0  0  0  0  0  0  0  0  0  0  0  0
   13.1490    4.4370   22.6770 C   0  0  0  0  0  0  0  0  0  0  0  0
   13.3000    5.4730   22.0540 O   0  0  0  0  0  0  0  0  0  0  0  0
   13.9720    3.2350   22.3630 C   0  0  0  0  0  0  0  0  0  0  0  0
   13.9050    1.9710   22.8550 C   0  0  0  0  0  0  0  0  0  0  0  0
   12.9650    1.3890   23.8920 C   0  0  0  0  0  0  0  0  0  0  0  0
   11.6500    0.8660   23.3600 C   0  0  0  0  0  0  0  0  0  0  0  0
   11.6030   -0.2160   22.4630 C   0  0  0  0  0  0  0  0  0  0  0  0
   10.3640   -0.6800   21.9930 C   0  0  0  0  0  0  0  0  0  0  0  0
    9.1780   -0.0780   22.4410 C   0  0  0  0  0  0  0  0  0  0  0  0
    7.9310   -0.4360   21.9050 N   0  0  0  0  0  0  0  0  0  0  0  0
    7.5860   -0.1960   20.6090 C   0  0  0  0  0  0  0  0  0  0  0  0
    8.3780    0.0010   19.7070 O   0  0  0  0  0  0  0  0  0  0  0  0
    6.2330   -0.1120   20.4540 N   0  0  0  0  0  0  0  0  0  0  0  0
    5.5950    0.5140   19.3620 C   0  0  0  0  0  0  0  0  0  0  0  0
    4.6390    1.5050   19.6150 C   0  0  0  0  0  0  0  0  0  0  0  0
    4.1240    2.2050   18.5180 C   0  0  0  0  0  0  0  0  0  0  0  0
    4.5860    1.9070   17.2280 C   0  0  0  0  0  0  0  0  0  0  0  0
    5.4790    0.9230   16.9740 N   0  0  0  0  0  0  0  0  0  0  0  0
    5.9820    0.2560   18.0310 C   0  0  0  0  0  0  0  0  0  0  0  0
    9.2220    0.9750   23.3620 C   0  0  0  0  0  0  0  0  0  0  0  0
   10.4560    1.4480   23.8200 C   0  0  0  0  0  0  0  0  0  0  0  0
  1  2  1  0
  2  3  1  0
  3  4  1  0
  4  5  2  0
  4  6  1  0
  6  7  2  0
  7  8  1  0
  8  9  1  0
  9 24  2  0
  9 10  1  0
 10 11  2  0
 11 12  1  0
 12 13  1  0
 12 23  2  0
 13 14  1  0
 14 15  2  0
 14 16  1  0
 16 17  1  0
 17 18  2  0
 17 22  1  0
 18 19  1  0
 19 20  2  0
 20 21  1  0
 21 22  2  0
 23 24  1  0
M  END
