WPC0731_minimised.pdb
     RDKit          3D

 24 25  0  0  0  0  0  0  0  0999 V2000
   14.8540    3.9150   20.8500 C   0  0  0  0  0  0  0  0  0  0  0  0
   14.2140    3.9020   22.2350 C   0  0  0  0  0  0  0  0  0  0  0  0
   13.9870    2.8120   22.8980 N   0  0  0  0  0  0  0  0  0  0  0  0
   14.4980    1.6000   22.5520 N   0  0  0  0  0  0  0  0  0  0  0  0
   13.9430    0.4440   23.2730 C   0  0  0  0  0  0  0  0  0  0  0  0
   12.4620    0.2270   23.0000 C   0  0  0  0  0  0  0  0  0  0  0  0
   12.0300   -0.8380   22.1890 C   0  0  0  0  0  0  0  0  0  0  0  0
   10.6650   -1.0050   21.9140 C   0  0  0  0  0  0  0  0  0  0  0  0
    9.7240   -0.1190   22.4580 C   0  0  0  0  0  0  0  0  0  0  0  0
    8.3690   -0.2000   22.0850 N   0  0  0  0  0  0  0  0  0  0  0  0
    7.9170   -0.0010   20.8110 C   0  0  0  0  0  0  0  0  0  0  0  0
    8.6400    0.1000   19.8400 O   0  0  0  0  0  0  0  0  0  0  0  0
    6.5570    0.1210   20.7320 N   0  0  0  0  0  0  0  0  0  0  0  0
    5.8540    0.6260   19.6110 C   0  0  0  0  0  0  0  0  0  0  0  0
    4.8840    1.6140   19.8160 C   0  0  0  0  0  0  0  0  0  0  0  0
    4.3030    2.2020   18.6860 C   0  0  0  0  0  0  0  0  0  0  0  0
    4.7180    1.8030   17.4080 C   0  0  0  0  0  0  0  0  0  0  0  0
    5.6100    0.8090   17.1980 N   0  0  0  0  0  0  0  0  0  0  0  0
    6.1770    0.2500   18.2880 C   0  0  0  0  0  0  0  0  0  0  0  0
   10.1420    0.9110   23.3100 C   0  0  0  0  0  0  0  0  0  0  0  0
   11.5070    1.0820   23.5820 C   0  0  0  0  0  0  0  0  0  0  0  0
   13.7820    5.1960   22.8840 C   0  0  0  0  0  0  0  0  0  0  0  0
   13.2730    5.2910   23.9890 O   0  0  0  0  0  0  0  0  0  0  0  0
   13.9810    6.3070   22.1400 O   0  0  0  0  0  0  0  0  0  0  0  0
  1  2  1  0
  2 22  1  0
  2  3  2  0
  3  4  1  0
  4  5  1  0
  5  6  1  0
  6 21  2  0
  6  7  1  0
  7  8  2  0
  8  9  1  0
  9 10  1  0
  9 20  2  0
 10 11  1  0
 11 12  2  0
 11 13  1  0
 13 14  1  0
 14 15  2  0
 14 19  1  0
 15 16  1  0
 16 17  2  0
 17 18  1  0
 18 19  2  0
 20 21  1  0
 22 23  2  0
 22 24  1  0
M  END
