WPC0139_minimised.pdb
     RDKit          3D

 24 26  0  0  0  0  0  0  0  0999 V2000
    9.0320   -0.3700   20.5070 O   0  0  0  0  0  0  0  0  0  0  0  0
    8.6830    0.5310   21.2350 C   0  0  0  0  0  0  0  0  0  0  0  0
    9.4720    1.0970   22.1990 N   0  0  0  0  0  0  0  0  0  0  0  0
   10.8570    0.8860   22.4020 C   0  0  0  0  0  0  0  0  0  0  0  0
   11.4760   -0.3540   22.1530 C   0  0  0  0  0  0  0  0  0  0  0  0
   12.8660   -0.4930   22.2880 C   0  0  0  0  0  0  0  0  0  0  0  0
   13.6400    0.6000   22.7050 C   0  0  0  0  0  0  0  0  0  0  0  0
   13.0240    1.8290   22.9770 C   0  0  0  0  0  0  0  0  0  0  0  0
   11.6370    1.9740   22.8230 C   0  0  0  0  0  0  0  0  0  0  0  0
    7.4680    1.1360   21.1080 N   0  0  0  0  0  0  0  0  0  0  0  0
    6.5310    0.9970   20.0520 C   0  0  0  0  0  0  0  0  0  0  0  0
    6.8790    0.5200   18.7610 C   0  0  0  0  0  0  0  0  0  0  0  0
    6.0420    0.5380   17.7020 N   0  0  0  0  0  0  0  0  0  0  0  0
    4.8240    1.0810   17.8990 C   0  0  0  0  0  0  0  0  0  0  0  0
    4.3640    1.5150   19.1490 C   0  0  0  0  0  0  0  0  0  0  0  0
    5.2250    1.4740   20.2640 C   0  0  0  0  0  0  0  0  0  0  0  0
    4.6970    2.0630   21.9370 S   0  0  1  0  0  0  0  0  0  0  0  0
    5.8240    2.8960   22.5170 O   0  0  0  0  0  0  0  0  0  0  0  0
    3.3250    3.1570   21.4230 C   0  0  0  0  0  0  0  0  0  0  0  0
    2.0020    2.7890   21.7210 C   0  0  0  0  0  0  0  0  0  0  0  0
    0.9280    3.4950   21.1540 C   0  0  0  0  0  0  0  0  0  0  0  0
    1.1810    4.5640   20.2800 C   0  0  0  0  0  0  0  0  0  0  0  0
    2.5030    4.9580   20.0200 C   0  0  0  0  0  0  0  0  0  0  0  0
    3.5770    4.2680   20.6020 C   0  0  0  0  0  0  0  0  0  0  0  0
  1  2  2  0
  2  3  1  0
  2 10  1  0
  3  4  1  0
  4  5  2  0
  4  9  1  0
  5  6  1  0
  6  7  2  0
  7  8  1  0
  8  9  2  0
 10 11  1  0
 11 12  2  0
 11 16  1  0
 12 13  1  0
 13 14  2  0
 14 15  1  0
 15 16  2  0
 17 16  1  0
 17 18  1  6
 17 19  1  0
 19 20  2  0
 19 24  1  0
 20 21  1  0
 21 22  2  0
 22 23  1  0
 23 24  2  0
M  END
