WPC0554_minimised.pdb
     RDKit          3D

 23 25  0  0  1  0  0  0  0  0999 V2000
    8.5890    0.0910   19.9220 O   0  0  0  0  0  0  0  0  0  0  0  0
    7.8540   -0.2240   20.8380 C   0  0  0  0  0  0  0  0  0  0  0  0
    8.2820   -0.6400   22.0730 N   0  0  0  0  0  0  0  0  0  0  0  0
    9.6150   -0.5500   22.5310 C   0  0  0  0  0  0  0  0  0  0  0  0
   10.6820   -0.8900   21.6870 C   0  0  0  0  0  0  0  0  0  0  0  0
   11.9990   -0.5670   22.0330 C   0  0  0  0  0  0  0  0  0  0  0  0
   12.2550    0.0700   23.2540 C   0  0  0  0  0  0  0  0  0  0  0  0
   13.6590    0.5490   23.5650 C   0  0  0  0  0  0  0  0  0  0  0  0
   14.2600    1.8630   22.4200 S   0  0  0  0  0  0  0  0  0  0  0  0
   13.4660    3.3290   22.9170 C   0  0  0  0  0  0  0  0  0  0  0  0
   14.0420    4.4500   23.1580 N   0  0  0  0  0  0  0  0  0  0  0  0
   13.1030    5.4890   23.6300 C   0  0  0  0  0  0  0  0  0  0  0  0
   11.6770    5.0570   23.2420 C   0  0  0  0  0  0  0  0  0  0  0  0
   11.7550    3.2420   23.1060 S   0  0  0  0  0  0  0  0  0  0  0  0
   11.2000    0.2890   24.1620 C   0  0  0  0  0  0  0  0  0  0  0  0
    9.8790   -0.0050   23.7930 C   0  0  0  0  0  0  0  0  0  0  0  0
    6.4930   -0.1560   20.7270 N   0  0  0  0  0  0  0  0  0  0  0  0
    5.8150    0.4320   19.6320 C   0  0  0  0  0  0  0  0  0  0  0  0
    4.8620    1.4290   19.8740 C   0  0  0  0  0  0  0  0  0  0  0  0
    4.3190    2.0910   18.7660 C   0  0  0  0  0  0  0  0  0  0  0  0
    4.7470    1.7510   17.4750 C   0  0  0  0  0  0  0  0  0  0  0  0
    5.6300    0.7570   17.2290 N   0  0  0  0  0  0  0  0  0  0  0  0
    6.1630    0.1290   18.2970 C   0  0  0  0  0  0  0  0  0  0  0  0
  1  2  2  0
  2  3  1  0
  2 17  1  0
  3  4  1  0
  4  5  2  0
  4 16  1  0
  5  6  1  0
  6  7  2  0
  7  8  1  0
  7 15  1  0
  8  9  1  0
 10  9  1  0
 10 11  1  0
 10 14  1  0
 11 12  1  0
 12 13  1  0
 13 14  1  0
 15 16  2  0
 17 18  1  0
 18 19  2  0
 18 23  1  0
 19 20  1  0
 20 21  2  0
 21 22  1  0
 22 23  2  0
M  END
