WPC0411_minimised.pdb
     RDKit          3D

 22 23  0  0  0  0  0  0  0  0999 V2000
   13.7720    5.7490   22.1330 C   0  0  0  0  0  0  0  0  0  0  0  0
   14.9970    5.0900   21.8020 O   0  0  0  0  0  0  0  0  0  0  0  0
   14.8810    3.7280   21.3500 C   0  0  0  0  0  0  0  0  0  0  0  0
   14.2060    2.8500   22.4240 C   0  0  0  0  0  0  0  0  0  0  0  0
   14.7050    1.4650   22.3860 N   0  0  0  0  0  0  0  0  0  0  0  0
   14.0420    0.5050   23.2850 C   0  0  0  0  0  0  0  0  0  0  0  0
   12.5490    0.3340   23.0480 C   0  0  0  0  0  0  0  0  0  0  0  0
   12.0810   -0.7020   22.2220 C   0  0  0  0  0  0  0  0  0  0  0  0
   10.7080   -0.8460   21.9760 C   0  0  0  0  0  0  0  0  0  0  0  0
    9.7890    0.0280   22.5770 C   0  0  0  0  0  0  0  0  0  0  0  0
    8.4200   -0.0400   22.2450 N   0  0  0  0  0  0  0  0  0  0  0  0
    7.9290    0.1590   20.9840 C   0  0  0  0  0  0  0  0  0  0  0  0
    8.6310    0.3130   20.0060 O   0  0  0  0  0  0  0  0  0  0  0  0
    6.5630    0.2070   20.9090 N   0  0  0  0  0  0  0  0  0  0  0  0
    5.8420    0.6440   19.7700 C   0  0  0  0  0  0  0  0  0  0  0  0
    4.8640    1.6330   19.9330 C   0  0  0  0  0  0  0  0  0  0  0  0
    4.2800    2.1670   18.7780 C   0  0  0  0  0  0  0  0  0  0  0  0
    4.6910    1.7100   17.5170 C   0  0  0  0  0  0  0  0  0  0  0  0
    5.5860    0.7100   17.3500 N   0  0  0  0  0  0  0  0  0  0  0  0
    6.1620    0.2090   18.4630 C   0  0  0  0  0  0  0  0  0  0  0  0
   10.2450    1.0260   23.4510 C   0  0  0  0  0  0  0  0  0  0  0  0
   11.6200    1.1780   23.6860 C   0  0  0  0  0  0  0  0  0  0  0  0
  1  2  1  0
  2  3  1  0
  3  4  1  0
  4  5  1  0
  5  6  1  0
  6  7  1  0
  7 22  2  0
  7  8  1  0
  8  9  2  0
  9 10  1  0
 10 11  1  0
 10 21  2  0
 11 12  1  0
 12 13  2  0
 12 14  1  0
 14 15  1  0
 15 16  2  0
 15 20  1  0
 16 17  1  0
 17 18  2  0
 18 19  1  0
 19 20  2  0
 21 22  1  0
M  END
