WPC0517_minimised.pdb
     RDKit          3D

 24 25  0  0  0  0  0  0  0  0999 V2000
   12.1880    6.8250   24.8240 C   0  0  0  0  0  0  0  0  0  0  0  0
   12.6800    5.4440   24.4090 C   0  0  0  0  0  0  0  0  0  0  0  0
   12.9870    5.2840   22.9020 C   0  0  0  0  0  0  0  0  0  0  0  0
   13.7290    4.0490   22.5960 N   0  0  0  0  0  0  0  0  0  0  0  0
   13.3360    2.8010   23.0100 C   0  0  0  0  0  0  0  0  0  0  0  0
   12.4560    2.6100   23.8200 O   0  0  0  0  0  0  0  0  0  0  0  0
   14.4740    1.5450   22.4280 S   0  0  0  0  0  0  0  0  0  0  0  0
   13.9210    0.0980   23.4140 C   0  0  0  0  0  0  0  0  0  0  0  0
   12.4740   -0.2720   23.1460 C   0  0  0  0  0  0  0  0  0  0  0  0
   12.1130   -0.8050   21.9040 C   0  0  0  0  0  0  0  0  0  0  0  0
   10.7600   -1.0080   21.6120 C   0  0  0  0  0  0  0  0  0  0  0  0
    9.7610   -0.6450   22.5250 C   0  0  0  0  0  0  0  0  0  0  0  0
    8.4050   -0.6190   22.1250 N   0  0  0  0  0  0  0  0  0  0  0  0
    7.9560   -0.1410   20.9200 C   0  0  0  0  0  0  0  0  0  0  0  0
    8.6780    0.2110   20.0070 O   0  0  0  0  0  0  0  0  0  0  0  0
    6.5930   -0.0790   20.8220 N   0  0  0  0  0  0  0  0  0  0  0  0
    5.9010    0.4770   19.7180 C   0  0  0  0  0  0  0  0  0  0  0  0
    4.9340    1.4640   19.9390 C   0  0  0  0  0  0  0  0  0  0  0  0
    4.3810    2.0950   18.8170 C   0  0  0  0  0  0  0  0  0  0  0  0
    4.8150    1.7360   17.5330 C   0  0  0  0  0  0  0  0  0  0  0  0
    5.7060    0.7440   17.3070 N   0  0  0  0  0  0  0  0  0  0  0  0
    6.2480    0.1480   18.3880 C   0  0  0  0  0  0  0  0  0  0  0  0
   10.1250   -0.2080   23.8050 C   0  0  0  0  0  0  0  0  0  0  0  0
   11.4820   -0.0420   24.1200 C   0  0  0  0  0  0  0  0  0  0  0  0
  1  2  1  0
  2  3  1  0
  3  4  1  0
  4  5  1  0
  5  6  2  0
  5  7  1  0
  7  8  1  0
  8  9  1  0
  9 24  2  0
  9 10  1  0
 10 11  2  0
 11 12  1  0
 12 13  1  0
 12 23  2  0
 13 14  1  0
 14 15  2  0
 14 16  1  0
 16 17  1  0
 17 18  2  0
 17 22  1  0
 18 19  1  0
 19 20  2  0
 20 21  1  0
 21 22  2  0
 23 24  1  0
M  END
