WPC0393_minimised.pdb
     RDKit          3D

 22 23  0  0  0  0  0  0  0  0999 V2000
   13.0720    5.1710   24.0640 O   0  0  0  0  0  0  0  0  0  0  0  0
   12.6460    4.6240   23.0670 C   0  0  0  0  0  0  0  0  0  0  0  0
   12.5800    5.2540   21.8860 O   0  0  0  0  0  0  0  0  0  0  0  0
   12.2670    3.1550   23.0420 C   0  0  0  0  0  0  0  0  0  0  0  0
   13.7630    2.1240   22.6870 S   0  0  0  0  0  0  0  0  0  0  0  0
   13.3800    0.5610   23.5760 C   0  0  0  0  0  0  0  0  0  0  0  0
   11.9810    0.0850   23.2600 C   0  0  0  0  0  0  0  0  0  0  0  0
   11.7490   -0.6160   22.0690 C   0  0  0  0  0  0  0  0  0  0  0  0
   10.4370   -0.9370   21.7020 C   0  0  0  0  0  0  0  0  0  0  0  0
    9.3570   -0.5270   22.4960 C   0  0  0  0  0  0  0  0  0  0  0  0
    8.0420   -0.6040   21.9940 N   0  0  0  0  0  0  0  0  0  0  0  0
    7.6780   -0.1690   20.7480 C   0  0  0  0  0  0  0  0  0  0  0  0
    8.4620    0.1570   19.8760 O   0  0  0  0  0  0  0  0  0  0  0  0
    6.3240   -0.0900   20.5810 N   0  0  0  0  0  0  0  0  0  0  0  0
    5.6950    0.5290   19.4760 C   0  0  0  0  0  0  0  0  0  0  0  0
    4.7250    1.5130   19.7050 C   0  0  0  0  0  0  0  0  0  0  0  0
    4.2330    2.2100   18.5950 C   0  0  0  0  0  0  0  0  0  0  0  0
    4.7340    1.9220   17.3170 C   0  0  0  0  0  0  0  0  0  0  0  0
    5.6330    0.9390   17.0820 N   0  0  0  0  0  0  0  0  0  0  0  0
    6.1090    0.2720   18.1510 C   0  0  0  0  0  0  0  0  0  0  0  0
    9.5920    0.0920   23.7310 C   0  0  0  0  0  0  0  0  0  0  0  0
   10.9070    0.3840   24.1210 C   0  0  0  0  0  0  0  0  0  0  0  0
  1  2  2  0
  2  3  1  0
  2  4  1  0
  4  5  1  0
  5  6  1  0
  6  7  1  0
  7 22  2  0
  7  8  1  0
  8  9  2  0
  9 10  1  0
 10 11  1  0
 10 21  2  0
 11 12  1  0
 12 13  2  0
 12 14  1  0
 14 15  1  0
 15 16  2  0
 15 20  1  0
 16 17  1  0
 17 18  2  0
 18 19  1  0
 19 20  2  0
 21 22  1  0
M  END
