WPC0512_minimised.pdb
     RDKit          3D

 24 26  0  0  1  0  0  0  0  0999 V2000
    8.5150    0.3570   20.0990 O   0  0  0  0  0  0  0  0  0  0  0  0
    7.7210    0.0440   20.9670 C   0  0  0  0  0  0  0  0  0  0  0  0
    8.0630   -0.4110   22.2150 N   0  0  0  0  0  0  0  0  0  0  0  0
    9.3810   -0.4880   22.7110 C   0  0  0  0  0  0  0  0  0  0  0  0
   10.4110   -0.9700   21.8900 C   0  0  0  0  0  0  0  0  0  0  0  0
   11.7460   -0.8440   22.2850 C   0  0  0  0  0  0  0  0  0  0  0  0
   12.0580   -0.2600   23.5230 C   0  0  0  0  0  0  0  0  0  0  0  0
   13.5060    0.0610   23.8500 C   0  0  1  0  0  0  0  0  0  0  0  0
   14.2870   -1.1230   23.6890 O   0  0  0  0  0  0  0  0  0  0  0  0
   14.0800    1.2020   22.9590 C   0  0  0  0  0  0  0  0  0  0  0  0
   13.5190    2.5530   23.2280 N   0  0  0  0  0  0  0  0  0  0  0  0
   14.3260    3.6810   22.7420 C   0  0  0  0  0  0  0  0  0  0  0  0
   13.3770    4.8770   22.7850 C   0  0  0  0  0  0  0  0  0  0  0  0
   12.0450    4.2510   22.3740 C   0  0  0  0  0  0  0  0  0  0  0  0
   12.1040    2.7980   22.8770 C   0  0  0  0  0  0  0  0  0  0  0  0
   11.0190    0.1130   24.3980 C   0  0  0  0  0  0  0  0  0  0  0  0
    9.6810    0.0090   23.9870 C   0  0  0  0  0  0  0  0  0  0  0  0
    6.3700    0.1250   20.7850 N   0  0  0  0  0  0  0  0  0  0  0  0
    5.7380    0.6520   19.6350 C   0  0  0  0  0  0  0  0  0  0  0  0
    4.7370    1.6180   19.7900 C   0  0  0  0  0  0  0  0  0  0  0  0
    4.2200    2.2060   18.6300 C   0  0  0  0  0  0  0  0  0  0  0  0
    4.7200    1.8260   17.3760 C   0  0  0  0  0  0  0  0  0  0  0  0
    5.6470    0.8550   17.2130 N   0  0  0  0  0  0  0  0  0  0  0  0
    6.1560    0.3000   18.3320 C   0  0  0  0  0  0  0  0  0  0  0  0
  1  2  2  0
  2  3  1  0
  2 18  1  0
  3  4  1  0
  4  5  2  0
  4 17  1  0
  5  6  1  0
  6  7  2  0
  7  8  1  0
  7 16  1  0
  8 10  1  0
  8  9  1  6
 10 11  1  0
 11 12  1  0
 11 15  1  0
 12 13  1  0
 13 14  1  0
 14 15  1  0
 16 17  2  0
 18 19  1  0
 19 20  2  0
 19 24  1  0
 20 21  1  0
 21 22  2  0
 22 23  1  0
 23 24  2  0
M  END
