WPC0451_minimised.pdb
     RDKit          3D

 24 25  0  0  0  0  0  0  0  0999 V2000
    9.1380    4.6810   23.2400 C   0  0  0  0  0  0  0  0  0  0  0  0
   10.0730    4.8000   24.3310 O   0  0  0  0  0  0  0  0  0  0  0  0
   11.2160    5.6570   24.1040 C   0  0  0  0  0  0  0  0  0  0  0  0
   12.0260    5.2380   22.8540 C   0  0  0  0  0  0  0  0  0  0  0  0
   12.3520    3.8130   22.8090 N   0  0  0  0  0  0  0  0  0  0  0  0
   13.5690    3.2870   23.1610 C   0  0  0  0  0  0  0  0  0  0  0  0
   14.4970    4.0200   23.4570 O   0  0  0  0  0  0  0  0  0  0  0  0
   13.6550    1.7500   23.2180 C   0  0  0  0  0  0  0  0  0  0  0  0
   12.3130    1.0390   23.0890 C   0  0  0  0  0  0  0  0  0  0  0  0
   12.0960    0.1630   22.0160 C   0  0  0  0  0  0  0  0  0  0  0  0
   10.8120   -0.3450   21.7820 C   0  0  0  0  0  0  0  0  0  0  0  0
    9.7380    0.0390   22.6000 C   0  0  0  0  0  0  0  0  0  0  0  0
    8.4100   -0.2320   22.2040 N   0  0  0  0  0  0  0  0  0  0  0  0
    7.9190    0.0560   20.9570 C   0  0  0  0  0  0  0  0  0  0  0  0
    8.6120    0.3830   20.0120 O   0  0  0  0  0  0  0  0  0  0  0  0
    6.5570   -0.0060   20.8580 N   0  0  0  0  0  0  0  0  0  0  0  0
    5.8370    0.4910   19.7440 C   0  0  0  0  0  0  0  0  0  0  0  0
    4.8810    1.4940   19.9460 C   0  0  0  0  0  0  0  0  0  0  0  0
    4.3180    2.0930   18.8120 C   0  0  0  0  0  0  0  0  0  0  0  0
    4.7280    1.6830   17.5350 C   0  0  0  0  0  0  0  0  0  0  0  0
    5.6110    0.6800   17.3300 N   0  0  0  0  0  0  0  0  0  0  0  0
    6.1650    0.1160   18.4230 C   0  0  0  0  0  0  0  0  0  0  0  0
    9.9750    0.8240   23.7380 C   0  0  0  0  0  0  0  0  0  0  0  0
   11.2660    1.3090   23.9930 C   0  0  0  0  0  0  0  0  0  0  0  0
  1  2  1  0
  2  3  1  0
  3  4  1  0
  4  5  1  0
  5  6  1  0
  6  7  2  0
  6  8  1  0
  8  9  1  0
  9 24  2  0
  9 10  1  0
 10 11  2  0
 11 12  1  0
 12 13  1  0
 12 23  2  0
 13 14  1  0
 14 15  2  0
 14 16  1  0
 16 17  1  0
 17 18  2  0
 17 22  1  0
 18 19  1  0
 19 20  2  0
 20 21  1  0
 21 22  2  0
 23 24  1  0
M  END
