WPC0781_minimised.pdb
     RDKit          3D

 23 24  0  0  1  0  0  0  0  0999 V2000
   13.2460    4.6960   21.2970 C   0  0  0  0  0  0  0  0  0  0  0  0
   14.0590    3.8450   22.2760 C   0  0  1  0  0  0  0  0  0  0  0  0
   14.6260    4.7690   23.2770 N   0  0  0  0  0  0  0  0  0  0  0  0
   13.2020    2.7310   22.9150 C   0  0  0  0  0  0  0  0  0  0  0  0
   12.3240    2.9790   23.7280 O   0  0  0  0  0  0  0  0  0  0  0  0
   13.8560    1.5370   22.8240 O   0  0  0  0  0  0  0  0  0  0  0  0
   13.4460    0.4080   23.6030 C   0  0  0  0  0  0  0  0  0  0  0  0
   12.0390   -0.0320   23.2470 C   0  0  0  0  0  0  0  0  0  0  0  0
   11.8210   -0.8570   22.1330 C   0  0  0  0  0  0  0  0  0  0  0  0
   10.5110   -1.1840   21.7570 C   0  0  0  0  0  0  0  0  0  0  0  0
    9.4210   -0.6760   22.4800 C   0  0  0  0  0  0  0  0  0  0  0  0
    8.1090   -0.7970   21.9870 N   0  0  0  0  0  0  0  0  0  0  0  0
    7.7300   -0.4050   20.7330 C   0  0  0  0  0  0  0  0  0  0  0  0
    8.5030   -0.1640   19.8230 O   0  0  0  0  0  0  0  0  0  0  0  0
    6.3770   -0.2660   20.6080 N   0  0  0  0  0  0  0  0  0  0  0  0
    5.7280    0.3680   19.5230 C   0  0  0  0  0  0  0  0  0  0  0  0
    4.7820    1.3650   19.7880 C   0  0  0  0  0  0  0  0  0  0  0  0
    4.2480    2.0630   18.6980 C   0  0  0  0  0  0  0  0  0  0  0  0
    4.6860    1.7610   17.4000 C   0  0  0  0  0  0  0  0  0  0  0  0
    5.5610    0.7660   17.1320 N   0  0  0  0  0  0  0  0  0  0  0  0
    6.0800    0.1010   18.1830 C   0  0  0  0  0  0  0  0  0  0  0  0
    9.6400    0.0760   23.6410 C   0  0  0  0  0  0  0  0  0  0  0  0
   10.9480    0.3880   24.0310 C   0  0  0  0  0  0  0  0  0  0  0  0
  2  1  1  6
  2  3  1  0
  2  4  1  0
  4  5  2  0
  4  6  1  0
  6  7  1  0
  7  8  1  0
  8 23  2  0
  8  9  1  0
  9 10  2  0
 10 11  1  0
 11 12  1  0
 11 22  2  0
 12 13  1  0
 13 14  2  0
 13 15  1  0
 15 16  1  0
 16 17  2  0
 16 21  1  0
 17 18  1  0
 18 19  2  0
 19 20  1  0
 20 21  2  0
 22 23  1  0
M  END
