WPC0756_minimised.pdb
     RDKit          3D

 21 22  0  0  1  0  0  0  0  0999 V2000
   12.1710    3.9980   22.0390 C   0  0  0  0  0  0  0  0  0  0  0  0
   13.2450    3.7570   23.1150 C   0  0  0  0  0  0  0  0  0  0  0  0
   14.0410    2.4270   23.0000 C   0  0  2  0  0  0  0  0  0  0  0  0
   14.4230    2.0360   21.5750 C   0  0  0  0  0  0  0  0  0  0  0  0
   13.4180    1.2910   23.6990 N   0  0  0  0  0  0  0  0  0  0  0  0
   12.1480    0.8470   23.3870 C   0  0  0  0  0  0  0  0  0  0  0  0
   11.9690   -0.0870   22.3570 C   0  0  0  0  0  0  0  0  0  0  0  0
   10.6740   -0.4700   21.9770 C   0  0  0  0  0  0  0  0  0  0  0  0
    9.5600    0.0760   22.6350 C   0  0  0  0  0  0  0  0  0  0  0  0
    8.2550   -0.1670   22.1600 N   0  0  0  0  0  0  0  0  0  0  0  0
    7.8530    0.0490   20.8700 C   0  0  0  0  0  0  0  0  0  0  0  0
    8.6060    0.2660   19.9400 O   0  0  0  0  0  0  0  0  0  0  0  0
    6.4930    0.0540   20.7320 N   0  0  0  0  0  0  0  0  0  0  0  0
    5.8110    0.5670   19.6050 C   0  0  0  0  0  0  0  0  0  0  0  0
    4.8320    1.5480   19.8020 C   0  0  0  0  0  0  0  0  0  0  0  0
    4.2760    2.1490   18.6670 C   0  0  0  0  0  0  0  0  0  0  0  0
    4.7220    1.7680   17.3940 C   0  0  0  0  0  0  0  0  0  0  0  0
    5.6290    0.7850   17.1910 N   0  0  0  0  0  0  0  0  0  0  0  0
    6.1740    0.2160   18.2860 C   0  0  0  0  0  0  0  0  0  0  0  0
    9.7430    0.9570   23.7110 C   0  0  0  0  0  0  0  0  0  0  0  0
   11.0390    1.3410   24.0870 C   0  0  0  0  0  0  0  0  0  0  0  0
  1  2  1  0
  2  3  1  0
  3  4  1  6
  3  5  1  0
  5  6  1  0
  6 21  2  0
  6  7  1  0
  7  8  2  0
  8  9  1  0
  9 10  1  0
  9 20  2  0
 10 11  1  0
 11 12  2  0
 11 13  1  0
 13 14  1  0
 14 15  2  0
 14 19  1  0
 15 16  1  0
 16 17  2  0
 17 18  1  0
 18 19  2  0
 20 21  1  0
M  END
