WPC0944_minimised.pdb
     RDKit          3D

 24 25  0  0  0  0  0  0  0  0999 V2000
   12.8300    5.5990   25.4090 N   0  0  0  0  0  0  0  0  0  0  0  0
   11.8240    5.6200   24.2230 S   0  0  0  0  0  0  0  0  0  0  0  0
   10.6660    5.2690   24.9950 O   0  0  0  0  0  0  0  0  0  0  0  0
   12.3940    6.9290   24.1470 O   0  0  0  0  0  0  0  0  0  0  0  0
   12.6790    4.4160   23.6260 O   0  0  0  0  0  0  0  0  0  0  0  0
   12.0740    3.1210   23.7620 C   0  0  0  0  0  0  0  0  0  0  0  0
   13.0900    2.0740   23.2650 C   0  0  0  0  0  0  0  0  0  0  0  0
   12.9480    0.6910   23.9260 C   0  0  0  0  0  0  0  0  0  0  0  0
   11.5960    0.1000   23.5950 C   0  0  0  0  0  0  0  0  0  0  0  0
   11.4390   -0.6070   22.3930 C   0  0  0  0  0  0  0  0  0  0  0  0
   10.1570   -0.9310   21.9430 C   0  0  0  0  0  0  0  0  0  0  0  0
    9.0310   -0.5200   22.6710 C   0  0  0  0  0  0  0  0  0  0  0  0
    7.7550   -0.5610   22.0760 N   0  0  0  0  0  0  0  0  0  0  0  0
    7.4850   -0.1100   20.8100 C   0  0  0  0  0  0  0  0  0  0  0  0
    8.3240    0.1730   19.9740 O   0  0  0  0  0  0  0  0  0  0  0  0
    6.1460    0.0340   20.5840 N   0  0  0  0  0  0  0  0  0  0  0  0
    5.5830    0.6610   19.4500 C   0  0  0  0  0  0  0  0  0  0  0  0
    4.6130    1.6550   19.6300 C   0  0  0  0  0  0  0  0  0  0  0  0
    4.1680    2.3390   18.4920 C   0  0  0  0  0  0  0  0  0  0  0  0
    4.7100    2.0260   17.2370 C   0  0  0  0  0  0  0  0  0  0  0  0
    5.6160    1.0390   17.0500 N   0  0  0  0  0  0  0  0  0  0  0  0
    6.0480    0.3860   18.1460 C   0  0  0  0  0  0  0  0  0  0  0  0
    9.1880    0.0820   23.9280 C   0  0  0  0  0  0  0  0  0  0  0  0
   10.4760    0.3810   24.4000 C   0  0  0  0  0  0  0  0  0  0  0  0
  1  2  1  0
  2  3  2  0
  2  4  2  0
  2  5  1  0
  5  6  1  0
  6  7  1  0
  7  8  1  0
  8  9  1  0
  9 24  2  0
  9 10  1  0
 10 11  2  0
 11 12  1  0
 12 13  1  0
 12 23  2  0
 13 14  1  0
 14 15  2  0
 14 16  1  0
 16 17  1  0
 17 18  2  0
 17 22  1  0
 18 19  1  0
 19 20  2  0
 20 21  1  0
 21 22  2  0
 23 24  1  0
M  END
