WPC0502_minimised.pdb
     RDKit          3D

 19 20  0  0  1  0  0  0  0  0999 V2000
   13.9610    0.3530   23.1430 C   0  0  0  0  0  0  0  0  0  0  0  0
   13.3150   -0.8410   23.8610 C   0  0  2  0  0  0  0  0  0  0  0  0
   14.0190   -2.0670   23.4830 N   0  0  0  0  0  0  0  0  0  0  0  0
   11.8390   -0.8860   23.4980 C   0  0  0  0  0  0  0  0  0  0  0  0
   11.4300   -1.3810   22.2480 C   0  0  0  0  0  0  0  0  0  0  0  0
   10.0950   -1.2640   21.8460 C   0  0  0  0  0  0  0  0  0  0  0  0
    9.1610   -0.6210   22.6690 C   0  0  0  0  0  0  0  0  0  0  0  0
    7.8620   -0.3540   22.1860 N   0  0  0  0  0  0  0  0  0  0  0  0
    7.5670    0.1190   20.9350 C   0  0  0  0  0  0  0  0  0  0  0  0
    8.3830    0.3370   20.0600 O   0  0  0  0  0  0  0  0  0  0  0  0
    6.2280    0.3170   20.7510 N   0  0  0  0  0  0  0  0  0  0  0  0
    5.6240    0.8400   19.5840 C   0  0  0  0  0  0  0  0  0  0  0  0
    4.6240    1.8110   19.7130 C   0  0  0  0  0  0  0  0  0  0  0  0
    4.1230    2.3850   18.5380 C   0  0  0  0  0  0  0  0  0  0  0  0
    4.6420    1.9910   17.2970 C   0  0  0  0  0  0  0  0  0  0  0  0
    5.5660    1.0130   17.1580 N   0  0  0  0  0  0  0  0  0  0  0  0
    6.0530    0.4660   18.2900 C   0  0  0  0  0  0  0  0  0  0  0  0
    9.5440   -0.1850   23.9460 C   0  0  0  0  0  0  0  0  0  0  0  0
   10.8790   -0.3220   24.3610 C   0  0  0  0  0  0  0  0  0  0  0  0
  2  1  1  6
  2  3  1  0
  2  4  1  0
  4 19  2  0
  4  5  1  0
  5  6  2  0
  6  7  1  0
  7  8  1  0
  7 18  2  0
  8  9  1  0
  9 10  2  0
  9 11  1  0
 11 12  1  0
 12 13  2  0
 12 17  1  0
 13 14  1  0
 14 15  2  0
 15 16  1  0
 16 17  2  0
 18 19  1  0
M  END
