WPC0984_minimised.pdb
     RDKit          3D

 22 23  0  0  1  0  0  0  0  0999 V2000
    8.5150   -0.1060   19.9760 O   0  0  0  0  0  0  0  0  0  0  0  0
    7.7070   -0.2820   20.8670 C   0  0  0  0  0  0  0  0  0  0  0  0
    8.0210   -0.6820   22.1390 N   0  0  0  0  0  0  0  0  0  0  0  0
    9.3330   -0.7260   22.6530 C   0  0  0  0  0  0  0  0  0  0  0  0
   10.3640   -1.3290   21.9190 C   0  0  0  0  0  0  0  0  0  0  0  0
   11.6980   -1.1610   22.3080 C   0  0  0  0  0  0  0  0  0  0  0  0
   12.0080   -0.4070   23.4530 C   0  0  0  0  0  0  0  0  0  0  0  0
   13.4520   -0.0470   23.7570 C   0  0  1  0  0  0  0  0  0  0  0  0
   14.2430   -1.2260   23.7160 O   0  0  0  0  0  0  0  0  0  0  0  0
   14.0210    0.9580   22.7310 C   0  0  0  0  0  0  0  0  0  0  0  0
   13.4260    2.3750   22.8550 N   0  0  0  0  0  0  0  0  0  0  0  0
   12.2150    2.4990   22.7230 O   0  0  0  0  0  0  0  0  0  0  0  0
   14.2150    3.3090   22.7740 O   0  0  0  0  0  0  0  0  0  0  0  0
   10.9630    0.1060   24.2470 C   0  0  0  0  0  0  0  0  0  0  0  0
    9.6290   -0.0480   23.8430 C   0  0  0  0  0  0  0  0  0  0  0  0
    6.3690   -0.0610   20.7000 N   0  0  0  0  0  0  0  0  0  0  0  0
    5.7750    0.5470   19.5680 C   0  0  0  0  0  0  0  0  0  0  0  0
    4.8150    1.5460   19.7640 C   0  0  0  0  0  0  0  0  0  0  0  0
    4.3280    2.2110   18.6320 C   0  0  0  0  0  0  0  0  0  0  0  0
    4.8230    1.8760   17.3640 C   0  0  0  0  0  0  0  0  0  0  0  0
    5.7110    0.8780   17.1600 N   0  0  0  0  0  0  0  0  0  0  0  0
    6.1860    0.2430   18.2510 C   0  0  0  0  0  0  0  0  0  0  0  0
  1  2  2  0
  2  3  1  0
  2 16  1  0
  3  4  1  0
  4  5  2  0
  4 15  1  0
  5  6  1  0
  6  7  2  0
  7  8  1  0
  7 14  1  0
  8 10  1  0
  8  9  1  6
 10 11  1  0
 11 12  1  0
 11 13  2  0
 14 15  2  0
 16 17  1  0
 17 18  2  0
 17 22  1  0
 18 19  1  0
 19 20  2  0
 20 21  1  0
 21 22  2  0
M  CHG  2  11   1  12  -1
M  END
