WPC0136_minimised.pdb
     RDKit          3D

 23 24  0  0  0  0  0  0  0  0999 V2000
    2.2970    3.9740   20.9820 C   0  0  0  0  0  0  0  0  0  0  0  0
    3.2810    3.3130   21.9850 C   0  0  0  0  0  0  0  0  0  0  0  0
    4.6580    4.0250   21.8820 C   0  0  0  0  0  0  0  0  0  0  0  0
    2.7400    3.5040   23.4270 C   0  0  0  0  0  0  0  0  0  0  0  0
    3.3750    1.7910   21.7200 C   0  0  0  0  0  0  0  0  0  0  0  0
    2.4130    1.0450   21.8300 O   0  0  0  0  0  0  0  0  0  0  0  0
    4.6070    1.2340   21.4690 N   0  0  0  0  0  0  0  0  0  0  0  0
    5.2100    1.0830   20.1950 C   0  0  0  0  0  0  0  0  0  0  0  0
    4.6900    1.6970   19.0470 C   0  0  0  0  0  0  0  0  0  0  0  0
    5.2400    1.4160   17.7920 C   0  0  0  0  0  0  0  0  0  0  0  0
    6.2640    0.5600   17.6160 N   0  0  0  0  0  0  0  0  0  0  0  0
    6.8230    0.0380   18.7260 C   0  0  0  0  0  0  0  0  0  0  0  0
    6.3420    0.2660   20.0340 C   0  0  0  0  0  0  0  0  0  0  0  0
    7.0950   -0.1920   21.1540 N   0  0  0  0  0  0  0  0  0  0  0  0
    8.4160    0.1440   21.3170 C   0  0  0  0  0  0  0  0  0  0  0  0
    8.9890    0.8450   20.5110 O   0  0  0  0  0  0  0  0  0  0  0  0
    9.0570   -0.3800   22.4060 N   0  0  0  0  0  0  0  0  0  0  0  0
   10.4420   -0.2000   22.6150 C   0  0  0  0  0  0  0  0  0  0  0  0
   11.3450   -1.1980   22.2160 C   0  0  0  0  0  0  0  0  0  0  0  0
   12.7280   -0.9500   22.2470 C   0  0  0  0  0  0  0  0  0  0  0  0
   13.2090    0.2910   22.6970 C   0  0  0  0  0  0  0  0  0  0  0  0
   12.3070    1.2840   23.1100 C   0  0  0  0  0  0  0  0  0  0  0  0
   10.9250    1.0400   23.0620 C   0  0  0  0  0  0  0  0  0  0  0  0
  1  2  1  0
  2  3  1  0
  2  4  1  0
  2  5  1  0
  5  6  2  0
  5  7  1  0
  7  8  1  0
  8  9  2  0
  8 13  1  0
  9 10  1  0
 10 11  2  0
 11 12  1  0
 12 13  2  0
 13 14  1  0
 14 15  1  0
 15 16  2  0
 15 17  1  0
 17 18  1  0
 18 19  2  0
 18 23  1  0
 19 20  1  0
 20 21  2  0
 21 22  1  0
 22 23  2  0
M  END
