WPC0377_minimised.pdb
     RDKit          3D

 18 19  0  0  0  0  0  0  0  0999 V2000
    8.5430    0.1450   19.9050 O   0  0  0  0  0  0  0  0  0  0  0  0
    7.8190    0.0300   20.8730 C   0  0  0  0  0  0  0  0  0  0  0  0
    8.2790   -0.1820   22.1420 N   0  0  0  0  0  0  0  0  0  0  0  0
    9.6440   -0.1450   22.4860 C   0  0  0  0  0  0  0  0  0  0  0  0
   10.5280   -1.0940   21.9550 C   0  0  0  0  0  0  0  0  0  0  0  0
   11.9050   -0.9780   22.1900 C   0  0  0  0  0  0  0  0  0  0  0  0
   12.4000    0.0960   22.9480 C   0  0  0  0  0  0  0  0  0  0  0  0
   13.8910    0.2630   23.1310 C   0  0  0  0  0  0  0  0  0  0  0  0
   14.3550   -0.7020   24.0630 O   0  0  0  0  0  0  0  0  0  0  0  0
   11.5090    1.0330   23.4990 C   0  0  0  0  0  0  0  0  0  0  0  0
   10.1300    0.9090   23.2720 C   0  0  0  0  0  0  0  0  0  0  0  0
    6.4600    0.1450   20.7900 N   0  0  0  0  0  0  0  0  0  0  0  0
    5.7670    0.6400   19.6580 C   0  0  0  0  0  0  0  0  0  0  0  0
    4.8020    1.6370   19.8430 C   0  0  0  0  0  0  0  0  0  0  0  0
    4.2470    2.2230   18.6990 C   0  0  0  0  0  0  0  0  0  0  0  0
    4.6810    1.8160   17.4300 C   0  0  0  0  0  0  0  0  0  0  0  0
    5.5690    0.8140   17.2410 N   0  0  0  0  0  0  0  0  0  0  0  0
    6.1050    0.2510   18.3420 C   0  0  0  0  0  0  0  0  0  0  0  0
  1  2  2  0
  2  3  1  0
  2 12  1  0
  3  4  1  0
  4  5  2  0
  4 11  1  0
  5  6  1  0
  6  7  2  0
  7  8  1  0
  7 10  1  0
  8  9  1  0
 10 11  2  0
 12 13  1  0
 13 14  2  0
 13 18  1  0
 14 15  1  0
 15 16  2  0
 16 17  1  0
 17 18  2  0
M  END
