WPC0402_minimised.pdb
     RDKit          3D

 22 23  0  0  0  0  0  0  0  0999 V2000
   13.0330    4.8870   24.0350 O   0  0  0  0  0  0  0  0  0  0  0  0
   12.3610    4.5820   23.0720 C   0  0  0  0  0  0  0  0  0  0  0  0
   11.2600    5.2510   22.7250 O   0  0  0  0  0  0  0  0  0  0  0  0
   12.6260    3.5170   22.2560 N   0  0  0  0  0  0  0  0  0  0  0  0
   13.7790    2.6140   22.4370 C   0  0  0  0  0  0  0  0  0  0  0  0
   13.4710    1.3100   23.2090 C   0  0  0  0  0  0  0  0  0  0  0  0
   12.0980    0.7360   22.9400 C   0  0  0  0  0  0  0  0  0  0  0  0
   11.9110   -0.2570   21.9650 C   0  0  0  0  0  0  0  0  0  0  0  0
   10.6170   -0.7210   21.6920 C   0  0  0  0  0  0  0  0  0  0  0  0
    9.5150   -0.1840   22.3740 C   0  0  0  0  0  0  0  0  0  0  0  0
    8.2050   -0.4590   21.9390 N   0  0  0  0  0  0  0  0  0  0  0  0
    7.7740   -0.1650   20.6750 C   0  0  0  0  0  0  0  0  0  0  0  0
    8.5170    0.1090   19.7520 O   0  0  0  0  0  0  0  0  0  0  0  0
    6.4120   -0.1300   20.5600 N   0  0  0  0  0  0  0  0  0  0  0  0
    5.7340    0.4690   19.4730 C   0  0  0  0  0  0  0  0  0  0  0  0
    4.7740    1.4560   19.7310 C   0  0  0  0  0  0  0  0  0  0  0  0
    4.2490    2.1540   18.6370 C   0  0  0  0  0  0  0  0  0  0  0  0
    4.7110    1.8670   17.3450 C   0  0  0  0  0  0  0  0  0  0  0  0
    5.5980    0.8810   17.0830 N   0  0  0  0  0  0  0  0  0  0  0  0
    6.1030    0.2090   18.1360 C   0  0  0  0  0  0  0  0  0  0  0  0
    9.7070    0.7590   23.3910 C   0  0  0  0  0  0  0  0  0  0  0  0
   11.0000    1.2110   23.6810 C   0  0  0  0  0  0  0  0  0  0  0  0
  1  2  2  0
  2  3  1  0
  2  4  1  0
  4  5  1  0
  5  6  1  0
  6  7  1  0
  7 22  2  0
  7  8  1  0
  8  9  2  0
  9 10  1  0
 10 11  1  0
 10 21  2  0
 11 12  1  0
 12 13  2  0
 12 14  1  0
 14 15  1  0
 15 16  2  0
 15 20  1  0
 16 17  1  0
 17 18  2  0
 18 19  1  0
 19 20  2  0
 21 22  1  0
M  END
