WPC0427_minimised.pdb
     RDKit          3D

 23 25  0  0  0  0  0  0  0  0999 V2000
    8.4720   -0.0300   19.7930 O   0  0  0  0  0  0  0  0  0  0  0  0
    7.7010   -0.1830   20.7220 C   0  0  0  0  0  0  0  0  0  0  0  0
    8.0780   -0.4730   22.0050 N   0  0  0  0  0  0  0  0  0  0  0  0
    9.4010   -0.3610   22.4750 C   0  0  0  0  0  0  0  0  0  0  0  0
   10.4540   -0.9680   21.7780 C   0  0  0  0  0  0  0  0  0  0  0  0
   11.7840   -0.6780   22.1120 C   0  0  0  0  0  0  0  0  0  0  0  0
   12.0590    0.2030   23.1690 C   0  0  0  0  0  0  0  0  0  0  0  0
   13.4920    0.5800   23.4770 C   0  0  0  0  0  0  0  0  0  0  0  0
   14.1470    1.8180   22.2950 S   0  0  0  0  0  0  0  0  0  0  0  0
   13.4260    3.3280   22.8230 C   0  0  0  0  0  0  0  0  0  0  0  0
   14.1740    4.4500   22.6710 C   0  0  0  0  0  0  0  0  0  0  0  0
   13.4390    5.4000   23.3370 N   0  0  0  0  0  0  0  0  0  0  0  0
   12.3170    4.8620   23.8780 N   0  0  0  0  0  0  0  0  0  0  0  0
   12.3210    3.5900   23.5850 N   0  0  0  0  0  0  0  0  0  0  0  0
   11.0020    0.7430   23.9230 C   0  0  0  0  0  0  0  0  0  0  0  0
    9.6730    0.4680   23.5710 C   0  0  0  0  0  0  0  0  0  0  0  0
    6.3500   -0.0270   20.5910 N   0  0  0  0  0  0  0  0  0  0  0  0
    5.7110    0.5670   19.4780 C   0  0  0  0  0  0  0  0  0  0  0  0
    4.7480    1.5580   19.7030 C   0  0  0  0  0  0  0  0  0  0  0  0
    4.2330    2.2300   18.5880 C   0  0  0  0  0  0  0  0  0  0  0  0
    4.7050    1.9100   17.3080 C   0  0  0  0  0  0  0  0  0  0  0  0
    5.5950    0.9190   17.0760 N   0  0  0  0  0  0  0  0  0  0  0  0
    6.0940    0.2760   18.1500 C   0  0  0  0  0  0  0  0  0  0  0  0
  1  2  2  0
  2  3  1  0
  2 17  1  0
  3  4  1  0
  4  5  2  0
  4 16  1  0
  5  6  1  0
  6  7  2  0
  7  8  1  0
  7 15  1  0
  8  9  1  0
  9 10  1  0
 10 11  2  0
 10 14  1  0
 11 12  1  0
 12 13  1  0
 13 14  2  0
 15 16  2  0
 17 18  1  0
 18 19  2  0
 18 23  1  0
 19 20  1  0
 20 21  2  0
 21 22  1  0
 22 23  2  0
M  END
