WPC0759_minimised.pdb
     RDKit          3D

 22 23  0  0  0  0  0  0  0  0999 V2000
   10.7280    5.3220   23.1690 N   0  0  0  0  0  0  0  0  0  0  0  0
   10.6890    3.8580   23.1940 C   0  0  0  0  0  0  0  0  0  0  0  0
   11.7570    3.2730   22.2480 C   0  0  0  0  0  0  0  0  0  0  0  0
   13.4460    3.4040   22.9800 S   0  0  0  0  0  0  0  0  0  0  0  0
   14.2330    1.8030   22.4860 C   0  0  0  0  0  0  0  0  0  0  0  0
   13.8280    0.6140   23.3850 C   0  0  0  0  0  0  0  0  0  0  0  0
   12.3910    0.1800   23.1840 C   0  0  0  0  0  0  0  0  0  0  0  0
   12.0500   -0.5780   22.0540 C   0  0  0  0  0  0  0  0  0  0  0  0
   10.7040   -0.8450   21.7820 C   0  0  0  0  0  0  0  0  0  0  0  0
    9.6950   -0.3400   22.6150 C   0  0  0  0  0  0  0  0  0  0  0  0
    8.3490   -0.3990   22.1980 N   0  0  0  0  0  0  0  0  0  0  0  0
    7.9130    0.0100   20.9640 C   0  0  0  0  0  0  0  0  0  0  0  0
    8.6480    0.3720   20.0650 O   0  0  0  0  0  0  0  0  0  0  0  0
    6.5530   -0.0000   20.8300 N   0  0  0  0  0  0  0  0  0  0  0  0
    5.8590    0.5170   19.7100 C   0  0  0  0  0  0  0  0  0  0  0  0
    4.8710    1.4870   19.9080 C   0  0  0  0  0  0  0  0  0  0  0  0
    4.3070    2.0820   18.7720 C   0  0  0  0  0  0  0  0  0  0  0  0
    4.7500    1.7000   17.4970 C   0  0  0  0  0  0  0  0  0  0  0  0
    5.6670    0.7270   17.2940 N   0  0  0  0  0  0  0  0  0  0  0  0
    6.2210    0.1680   18.3890 C   0  0  0  0  0  0  0  0  0  0  0  0
   10.0360    0.3350   23.7940 C   0  0  0  0  0  0  0  0  0  0  0  0
   11.3850    0.5860   24.0820 C   0  0  0  0  0  0  0  0  0  0  0  0
  1  2  1  0
  2  3  1  0
  3  4  1  0
  4  5  1  0
  5  6  1  0
  6  7  1  0
  7 22  2  0
  7  8  1  0
  8  9  2  0
  9 10  1  0
 10 11  1  0
 10 21  2  0
 11 12  1  0
 12 13  2  0
 12 14  1  0
 14 15  1  0
 15 16  2  0
 15 20  1  0
 16 17  1  0
 17 18  2  0
 18 19  1  0
 19 20  2  0
 21 22  1  0
M  END
