WPC0908_minimised.pdb
     RDKit          3D

 23 24  0  0  0  0  0  0  0  0999 V2000
    9.4620    5.8010   22.9730 C   0  0  0  0  0  0  0  0  0  0  0  0
   10.4710    6.1500   23.9890 N   0  0  0  0  0  0  0  0  0  0  0  0
   11.6630    5.7120   23.8210 C   0  0  0  0  0  0  0  0  0  0  0  0
   12.6970    6.0890   24.6440 N   0  0  0  0  0  0  0  0  0  0  0  0
   12.5560    6.9520   25.8190 C   0  0  0  0  0  0  0  0  0  0  0  0
   12.3420    4.7060   22.5960 S   0  0  0  0  0  0  0  0  0  0  0  0
   12.5020    3.1270   23.5320 C   0  0  0  0  0  0  0  0  0  0  0  0
   11.3980    2.1340   23.2420 C   0  0  0  0  0  0  0  0  0  0  0  0
   11.6170    1.0420   22.3840 C   0  0  0  0  0  0  0  0  0  0  0  0
   10.5530    0.1920   22.0470 C   0  0  0  0  0  0  0  0  0  0  0  0
    9.2770    0.4290   22.5820 C   0  0  0  0  0  0  0  0  0  0  0  0
    8.1440   -0.2390   22.0810 N   0  0  0  0  0  0  0  0  0  0  0  0
    7.7630   -0.1320   20.7720 C   0  0  0  0  0  0  0  0  0  0  0  0
    8.5180    0.1170   19.8520 O   0  0  0  0  0  0  0  0  0  0  0  0
    6.4090   -0.2150   20.6120 N   0  0  0  0  0  0  0  0  0  0  0  0
    5.7360    0.3780   19.5200 C   0  0  0  0  0  0  0  0  0  0  0  0
    4.8010    1.3900   19.7750 C   0  0  0  0  0  0  0  0  0  0  0  0
    4.2870    2.0930   18.6790 C   0  0  0  0  0  0  0  0  0  0  0  0
    4.7260    1.7750   17.3850 C   0  0  0  0  0  0  0  0  0  0  0  0
    5.6000    0.7750   17.1290 N   0  0  0  0  0  0  0  0  0  0  0  0
    6.1030    0.1060   18.1860 C   0  0  0  0  0  0  0  0  0  0  0  0
    9.0800    1.4610   23.5100 C   0  0  0  0  0  0  0  0  0  0  0  0
   10.1430    2.3110   23.8440 C   0  0  0  0  0  0  0  0  0  0  0  0
  1  2  1  0
  2  3  2  0
  3  4  1  0
  3  6  1  0
  4  5  1  0
  6  7  1  0
  7  8  1  0
  8 23  2  0
  8  9  1  0
  9 10  2  0
 10 11  1  0
 11 12  1  0
 11 22  2  0
 12 13  1  0
 13 14  2  0
 13 15  1  0
 15 16  1  0
 16 17  2  0
 16 21  1  0
 17 18  1  0
 18 19  2  0
 19 20  1  0
 20 21  2  0
 22 23  1  0
M  END
