WPC0208_minimised.pdb
     RDKit          3D

 21 22  0  0  0  0  0  0  0  0999 V2000
    7.0240    3.9050   21.8010 C   0  0  0  0  0  0  0  0  0  0  0  0
    5.5010    3.1250   22.2320 S   0  0  0  0  0  0  0  0  0  0  0  0
    4.5940    4.1040   22.7560 O   0  0  0  0  0  0  0  0  0  0  0  0
    5.7920    1.9600   23.0450 O   0  0  0  0  0  0  0  0  0  0  0  0
    4.7100    2.6250   20.8650 N   0  0  0  0  0  0  0  0  0  0  0  0
    5.0610    1.7950   19.8130 C   0  0  0  0  0  0  0  0  0  0  0  0
    4.4610    2.1130   18.5970 C   0  0  0  0  0  0  0  0  0  0  0  0
    4.8830    1.4940   17.4250 C   0  0  0  0  0  0  0  0  0  0  0  0
    5.7740    0.4860   17.4040 N   0  0  0  0  0  0  0  0  0  0  0  0
    6.3040    0.1180   18.5890 C   0  0  0  0  0  0  0  0  0  0  0  0
    5.9970    0.7410   19.8190 C   0  0  0  0  0  0  0  0  0  0  0  0
    6.7080    0.3670   20.9870 N   0  0  0  0  0  0  0  0  0  0  0  0
    8.0690    0.3600   21.0800 C   0  0  0  0  0  0  0  0  0  0  0  0
    8.7700    0.5200   20.1020 O   0  0  0  0  0  0  0  0  0  0  0  0
    8.5610    0.2380   22.3460 N   0  0  0  0  0  0  0  0  0  0  0  0
    9.9150    0.4490   22.6800 C   0  0  0  0  0  0  0  0  0  0  0  0
   10.9290   -0.3160   22.0770 C   0  0  0  0  0  0  0  0  0  0  0  0
   12.2800   -0.0150   22.3200 C   0  0  0  0  0  0  0  0  0  0  0  0
   12.6150    1.0560   23.1650 C   0  0  0  0  0  0  0  0  0  0  0  0
   11.6010    1.8180   23.7660 C   0  0  0  0  0  0  0  0  0  0  0  0
   10.2520    1.5070   23.5350 C   0  0  0  0  0  0  0  0  0  0  0  0
  1  2  1  0
  2  3  2  0
  2  4  2  0
  2  5  1  0
  5  6  1  0
  6  7  2  0
  6 11  1  0
  7  8  1  0
  8  9  2  0
  9 10  1  0
 10 11  2  0
 11 12  1  0
 12 13  1  0
 13 14  2  0
 13 15  1  0
 15 16  1  0
 16 17  2  0
 16 21  1  0
 17 18  1  0
 18 19  2  0
 19 20  1  0
 20 21  2  0
M  END
