WPC0605_minimised.pdb
     RDKit          3D

 24 26  0  0  0  0  0  0  0  0999 V2000
    8.5760   -0.2100   19.9470 O   0  0  0  0  0  0  0  0  0  0  0  0
    7.8280   -0.4250   20.8830 C   0  0  0  0  0  0  0  0  0  0  0  0
    8.2350   -0.7950   22.1400 N   0  0  0  0  0  0  0  0  0  0  0  0
    9.5690   -0.7050   22.5960 C   0  0  0  0  0  0  0  0  0  0  0  0
   10.6200   -1.1910   21.8070 C   0  0  0  0  0  0  0  0  0  0  0  0
   11.9460   -0.8420   22.0940 C   0  0  0  0  0  0  0  0  0  0  0  0
   12.2260   -0.0290   23.2030 C   0  0  0  0  0  0  0  0  0  0  0  0
   13.6260    0.5310   23.3950 C   0  0  0  0  0  0  0  0  0  0  0  0
   13.9410    1.7070   22.4370 C   0  0  0  0  0  0  0  0  0  0  0  0
   13.1290    2.9740   22.6850 C   0  0  0  0  0  0  0  0  0  0  0  0
   13.7380    4.1910   23.0440 C   0  0  0  0  0  0  0  0  0  0  0  0
   12.9310    5.3090   23.3150 C   0  0  0  0  0  0  0  0  0  0  0  0
   11.5410    5.1620   23.2040 C   0  0  0  0  0  0  0  0  0  0  0  0
   11.0190    3.9260   22.7980 C   0  0  0  0  0  0  0  0  0  0  0  0
   11.8000    2.8660   22.5400 N   0  0  0  0  0  0  0  0  0  0  0  0
   11.1820    0.3370   24.0760 C   0  0  0  0  0  0  0  0  0  0  0  0
    9.8530    0.0120   23.7660 C   0  0  0  0  0  0  0  0  0  0  0  0
    6.4740   -0.2660   20.7760 N   0  0  0  0  0  0  0  0  0  0  0  0
    5.8200    0.3440   19.6770 C   0  0  0  0  0  0  0  0  0  0  0  0
    4.8880    1.3610   19.9180 C   0  0  0  0  0  0  0  0  0  0  0  0
    4.3550    2.0330   18.8110 C   0  0  0  0  0  0  0  0  0  0  0  0
    4.7730    1.6820   17.5190 C   0  0  0  0  0  0  0  0  0  0  0  0
    5.6370    0.6720   17.2730 N   0  0  0  0  0  0  0  0  0  0  0  0
    6.1600    0.0340   18.3400 C   0  0  0  0  0  0  0  0  0  0  0  0
  1  2  2  0
  2  3  1  0
  2 18  1  0
  3  4  1  0
  4  5  2  0
  4 17  1  0
  5  6  1  0
  6  7  2  0
  7  8  1  0
  7 16  1  0
  8  9  1  0
  9 10  1  0
 10 11  2  0
 10 15  1  0
 11 12  1  0
 12 13  2  0
 13 14  1  0
 14 15  2  0
 16 17  2  0
 18 19  1  0
 19 20  2  0
 19 24  1  0
 20 21  1  0
 21 22  2  0
 22 23  1  0
 23 24  2  0
M  END
