WPC0607_minimised.pdb
     RDKit          3D

 22 23  0  0  0  0  0  0  0  0999 V2000
   14.0740    5.2270   22.4070 C   0  0  0  0  0  0  0  0  0  0  0  0
   14.4910    3.8270   22.5480 N   0  0  0  0  0  0  0  0  0  0  0  0
   13.6260    2.7850   22.3260 C   0  0  0  0  0  0  0  0  0  0  0  0
   12.4390    2.9840   22.1950 O   0  0  0  0  0  0  0  0  0  0  0  0
   14.2680    1.4050   22.2090 C   0  0  0  0  0  0  0  0  0  0  0  0
   13.7430    0.3670   23.2180 C   0  0  0  0  0  0  0  0  0  0  0  0
   12.2850    0.0150   22.9970 C   0  0  0  0  0  0  0  0  0  0  0  0
   11.9260   -0.9650   22.0560 C   0  0  0  0  0  0  0  0  0  0  0  0
   10.5720   -1.2180   21.7950 C   0  0  0  0  0  0  0  0  0  0  0  0
    9.5770   -0.4790   22.4500 C   0  0  0  0  0  0  0  0  0  0  0  0
    8.2330   -0.5680   22.0400 N   0  0  0  0  0  0  0  0  0  0  0  0
    7.8160   -0.3230   20.7590 C   0  0  0  0  0  0  0  0  0  0  0  0
    8.5540   -0.2540   19.7960 O   0  0  0  0  0  0  0  0  0  0  0  0
    6.4690   -0.1120   20.6740 N   0  0  0  0  0  0  0  0  0  0  0  0
    5.8090    0.4740   19.5670 C   0  0  0  0  0  0  0  0  0  0  0  0
    4.8700    1.4850   19.8030 C   0  0  0  0  0  0  0  0  0  0  0  0
    4.3260    2.1420   18.6930 C   0  0  0  0  0  0  0  0  0  0  0  0
    4.7520    1.7920   17.4040 C   0  0  0  0  0  0  0  0  0  0  0  0
    5.6180    0.7820   17.1630 N   0  0  0  0  0  0  0  0  0  0  0  0
    6.1430    0.1510   18.2330 C   0  0  0  0  0  0  0  0  0  0  0  0
    9.9290    0.4570   23.4290 C   0  0  0  0  0  0  0  0  0  0  0  0
   11.2810    0.6970   23.7080 C   0  0  0  0  0  0  0  0  0  0  0  0
  1  2  1  0
  2  3  1  0
  3  4  2  0
  3  5  1  0
  5  6  1  0
  6  7  1  0
  7 22  2  0
  7  8  1  0
  8  9  2  0
  9 10  1  0
 10 11  1  0
 10 21  2  0
 11 12  1  0
 12 13  2  0
 12 14  1  0
 14 15  1  0
 15 16  2  0
 15 20  1  0
 16 17  1  0
 17 18  2  0
 18 19  1  0
 19 20  2  0
 21 22  1  0
M  END
