WPC0615_minimised.pdb
     RDKit          3D

 24 26  0  0  0  0  0  0  0  0999 V2000
   12.1780    6.5430   24.6030 C   0  0  0  0  0  0  0  0  0  0  0  0
   12.3820    5.2000   23.9820 C   0  0  0  0  0  0  0  0  0  0  0  0
   11.6900    4.1570   24.3880 N   0  0  0  0  0  0  0  0  0  0  0  0
   12.1490    3.0000   23.8230 N   0  0  0  0  0  0  0  0  0  0  0  0
   13.1320    3.2160   22.9720 C   0  0  0  0  0  0  0  0  0  0  0  0
   14.0790    1.8400   22.4140 S   0  0  0  0  0  0  0  0  0  0  0  0
   13.5800    0.4360   23.5020 C   0  0  0  0  0  0  0  0  0  0  0  0
   12.1740   -0.0500   23.2080 C   0  0  0  0  0  0  0  0  0  0  0  0
   11.9130   -0.7340   22.0120 C   0  0  0  0  0  0  0  0  0  0  0  0
   10.5940   -1.0550   21.6750 C   0  0  0  0  0  0  0  0  0  0  0  0
    9.5280   -0.6640   22.4980 C   0  0  0  0  0  0  0  0  0  0  0  0
    8.2000   -0.7350   22.0270 N   0  0  0  0  0  0  0  0  0  0  0  0
    7.7960   -0.3160   20.7850 C   0  0  0  0  0  0  0  0  0  0  0  0
    8.5490   -0.0390   19.8710 O   0  0  0  0  0  0  0  0  0  0  0  0
    6.4390   -0.1970   20.6700 N   0  0  0  0  0  0  0  0  0  0  0  0
    5.7810    0.4210   19.5790 C   0  0  0  0  0  0  0  0  0  0  0  0
    4.8340    1.4220   19.8310 C   0  0  0  0  0  0  0  0  0  0  0  0
    4.3090    2.1120   18.7300 C   0  0  0  0  0  0  0  0  0  0  0  0
    4.7530    1.7980   17.4380 C   0  0  0  0  0  0  0  0  0  0  0  0
    5.6280    0.7990   17.1820 N   0  0  0  0  0  0  0  0  0  0  0  0
    6.1400    0.1420   18.2420 C   0  0  0  0  0  0  0  0  0  0  0  0
    9.7940   -0.0750   23.7400 C   0  0  0  0  0  0  0  0  0  0  0  0
   11.1180    0.2130   24.1030 C   0  0  0  0  0  0  0  0  0  0  0  0
   13.6120    4.8780   22.7810 S   0  0  0  0  0  0  0  0  0  0  0  0
  1  2  1  0
  2 24  1  0
  2  3  2  0
  3  4  1  0
  4  5  2  0
  5  6  1  0
  5 24  1  0
  6  7  1  0
  7  8  1  0
  8 23  1  0
  8  9  2  0
  9 10  1  0
 10 11  2  0
 11 12  1  0
 11 22  1  0
 12 13  1  0
 13 14  2  0
 13 15  1  0
 15 16  1  0
 16 17  2  0
 16 21  1  0
 17 18  1  0
 18 19  2  0
 19 20  1  0
 20 21  2  0
 22 23  2  0
M  END
