WPC0574_minimised.pdb
     RDKit          3D

 24 25  0  0  0  0  0  0  0  0999 V2000
    9.4000    6.8310   23.1970 N   0  0  0  0  0  0  0  0  0  0  0  0
    9.3320    5.3780   23.1490 C   0  0  0  0  0  0  0  0  0  0  0  0
   10.7520    4.8110   23.0890 C   0  0  0  0  0  0  0  0  0  0  0  0
   10.7100    3.2830   22.9110 C   0  0  0  0  0  0  0  0  0  0  0  0
   11.8390    2.7920   22.1120 N   0  0  0  0  0  0  0  0  0  0  0  0
   13.1740    3.0640   22.6560 C   0  0  0  0  0  0  0  0  0  0  0  0
   14.1370    1.8950   22.3740 C   0  0  0  0  0  0  0  0  0  0  0  0
   13.9350    0.5050   23.5670 S   0  0  0  0  0  0  0  0  0  0  0  0
   12.2650   -0.0260   23.2880 C   0  0  0  0  0  0  0  0  0  0  0  0
   11.9500   -0.6510   22.0770 C   0  0  0  0  0  0  0  0  0  0  0  0
   10.6100   -0.8980   21.7620 C   0  0  0  0  0  0  0  0  0  0  0  0
    9.5850   -0.4890   22.6250 C   0  0  0  0  0  0  0  0  0  0  0  0
    8.2480   -0.4820   22.1690 N   0  0  0  0  0  0  0  0  0  0  0  0
    7.8510   -0.0420   20.9300 C   0  0  0  0  0  0  0  0  0  0  0  0
    8.6050    0.2840   20.0310 O   0  0  0  0  0  0  0  0  0  0  0  0
    6.4920    0.0200   20.7910 N   0  0  0  0  0  0  0  0  0  0  0  0
    5.8260    0.5670   19.6690 C   0  0  0  0  0  0  0  0  0  0  0  0
    4.8480    1.5490   19.8670 C   0  0  0  0  0  0  0  0  0  0  0  0
    4.3090    2.1660   18.7320 C   0  0  0  0  0  0  0  0  0  0  0  0
    4.7650    1.7980   17.4580 C   0  0  0  0  0  0  0  0  0  0  0  0
    5.6670    0.8110   17.2540 N   0  0  0  0  0  0  0  0  0  0  0  0
    6.1980    0.2290   18.3490 C   0  0  0  0  0  0  0  0  0  0  0  0
    9.9060    0.0310   23.8870 C   0  0  0  0  0  0  0  0  0  0  0  0
   11.2520    0.2490   24.2240 C   0  0  0  0  0  0  0  0  0  0  0  0
  1  2  1  0
  2  3  1  0
  3  4  1  0
  4  5  1  0
  5  6  1  0
  6  7  1  0
  7  8  1  0
  8  9  1  0
  9 24  2  0
  9 10  1  0
 10 11  2  0
 11 12  1  0
 12 13  1  0
 12 23  2  0
 13 14  1  0
 14 15  2  0
 14 16  1  0
 16 17  1  0
 17 18  2  0
 17 22  1  0
 18 19  1  0
 19 20  2  0
 20 21  1  0
 21 22  2  0
 23 24  1  0
M  END
