WPC0854_minimised.pdb
     RDKit          3D

 21 22  0  0  0  0  0  0  0  0999 V2000
   14.5220    2.8700   22.6260 C   0  0  0  0  0  0  0  0  0  0  0  0
   13.4740    2.4280   23.3230 C   0  0  0  0  0  0  0  0  0  0  0  0
   12.3730    3.3800   23.7590 C   0  0  0  0  0  0  0  0  0  0  0  0
   11.3800    3.6580   22.6210 C   0  0  0  0  0  0  0  0  0  0  0  0
   13.3440    0.9730   23.7550 C   0  0  0  0  0  0  0  0  0  0  0  0
   12.0080    0.3680   23.3810 C   0  0  0  0  0  0  0  0  0  0  0  0
   11.8510   -0.2340   22.1260 C   0  0  0  0  0  0  0  0  0  0  0  0
   10.5820   -0.6560   21.7180 C   0  0  0  0  0  0  0  0  0  0  0  0
    9.4610   -0.4430   22.5350 C   0  0  0  0  0  0  0  0  0  0  0  0
    8.1550   -0.6160   22.0270 N   0  0  0  0  0  0  0  0  0  0  0  0
    7.7380   -0.1950   20.7910 C   0  0  0  0  0  0  0  0  0  0  0  0
    8.4750    0.1700   19.8950 O   0  0  0  0  0  0  0  0  0  0  0  0
    6.3780   -0.1750   20.6600 N   0  0  0  0  0  0  0  0  0  0  0  0
    5.7030    0.4240   19.5710 C   0  0  0  0  0  0  0  0  0  0  0  0
    4.7500    1.4200   19.8200 C   0  0  0  0  0  0  0  0  0  0  0  0
    4.2150    2.0960   18.7170 C   0  0  0  0  0  0  0  0  0  0  0  0
    4.6510    1.7710   17.4240 C   0  0  0  0  0  0  0  0  0  0  0  0
    5.5390    0.7820   17.1720 N   0  0  0  0  0  0  0  0  0  0  0  0
    6.0640    0.1410   18.2360 C   0  0  0  0  0  0  0  0  0  0  0  0
    9.6330    0.0680   23.8290 C   0  0  0  0  0  0  0  0  0  0  0  0
   10.9100    0.4580   24.2590 C   0  0  0  0  0  0  0  0  0  0  0  0
  1  2  2  0
  2  3  1  0
  2  5  1  0
  3  4  1  0
  5  6  1  0
  6 21  2  0
  6  7  1  0
  7  8  2  0
  8  9  1  0
  9 10  1  0
  9 20  2  0
 10 11  1  0
 11 12  2  0
 11 13  1  0
 13 14  1  0
 14 15  2  0
 14 19  1  0
 15 16  1  0
 16 17  2  0
 17 18  1  0
 18 19  2  0
 20 21  1  0
M  END
