WPC0695_minimised.pdb
     RDKit          3D

 23 24  0  0  0  0  0  0  0  0999 V2000
   12.7160    5.2130   23.4900 C   0  0  0  0  0  0  0  0  0  0  0  0
   13.6080    4.1760   22.7830 C   0  0  0  0  0  0  0  0  0  0  0  0
   13.6570    4.4590   21.2720 C   0  0  0  0  0  0  0  0  0  0  0  0
   13.1050    2.8250   23.0490 N   0  0  0  0  0  0  0  0  0  0  0  0
   13.9030    1.7040   23.0470 C   0  0  0  0  0  0  0  0  0  0  0  0
   15.0260    1.7100   22.5930 O   0  0  0  0  0  0  0  0  0  0  0  0
   13.3300    0.4520   23.6950 C   0  0  0  0  0  0  0  0  0  0  0  0
   11.8660    0.1880   23.3860 C   0  0  0  0  0  0  0  0  0  0  0  0
   11.5280   -0.7410   22.3880 C   0  0  0  0  0  0  0  0  0  0  0  0
   10.1910   -0.9040   22.0080 C   0  0  0  0  0  0  0  0  0  0  0  0
    9.1870   -0.1580   22.6410 C   0  0  0  0  0  0  0  0  0  0  0  0
    7.8710   -0.1800   22.1440 N   0  0  0  0  0  0  0  0  0  0  0  0
    7.5430    0.1320   20.8530 C   0  0  0  0  0  0  0  0  0  0  0  0
    8.3510    0.3130   19.9630 O   0  0  0  0  0  0  0  0  0  0  0  0
    6.1970    0.2610   20.6660 N   0  0  0  0  0  0  0  0  0  0  0  0
    5.5880    0.7930   19.5070 C   0  0  0  0  0  0  0  0  0  0  0  0
    4.6090    1.7820   19.6560 C   0  0  0  0  0  0  0  0  0  0  0  0
    4.1190    2.3890   18.4940 C   0  0  0  0  0  0  0  0  0  0  0  0
    4.6240    2.0030   17.2440 C   0  0  0  0  0  0  0  0  0  0  0  0
    5.5290    1.0090   17.0880 N   0  0  0  0  0  0  0  0  0  0  0  0
    6.0100    0.4350   18.2080 C   0  0  0  0  0  0  0  0  0  0  0  0
    9.5090    0.6960   23.7050 C   0  0  0  0  0  0  0  0  0  0  0  0
   10.8480    0.8660   24.0820 C   0  0  0  0  0  0  0  0  0  0  0  0
  1  2  1  0
  2  3  1  0
  2  4  1  0
  4  5  1  0
  5  6  2  0
  5  7  1  0
  7  8  1  0
  8 23  2  0
  8  9  1  0
  9 10  2  0
 10 11  1  0
 11 12  1  0
 11 22  2  0
 12 13  1  0
 13 14  2  0
 13 15  1  0
 15 16  1  0
 16 17  2  0
 16 21  1  0
 17 18  1  0
 18 19  2  0
 19 20  1  0
 20 21  2  0
 22 23  1  0
M  END
