WPC0641_minimised.pdb
     RDKit          3D

 21 22  0  0  0  0  0  0  0  0999 V2000
   13.9270    4.7420   22.9670 C   0  0  0  0  0  0  0  0  0  0  0  0
   13.1910    3.3900   22.8840 C   0  0  0  0  0  0  0  0  0  0  0  0
   11.9520    3.5270   21.9830 C   0  0  0  0  0  0  0  0  0  0  0  0
   14.1420    2.2570   22.4180 C   0  0  0  0  0  0  0  0  0  0  0  0
   13.9790    0.7340   23.4410 S   0  0  0  0  0  0  0  0  0  0  0  0
   12.2910    0.2680   23.1750 C   0  0  0  0  0  0  0  0  0  0  0  0
   11.9750   -0.5350   22.0730 C   0  0  0  0  0  0  0  0  0  0  0  0
   10.6320   -0.8060   21.7790 C   0  0  0  0  0  0  0  0  0  0  0  0
    9.6080   -0.2580   22.5670 C   0  0  0  0  0  0  0  0  0  0  0  0
    8.2660   -0.3500   22.1430 N   0  0  0  0  0  0  0  0  0  0  0  0
    7.8340   -0.0050   20.8890 C   0  0  0  0  0  0  0  0  0  0  0  0
    8.5730    0.2930   19.9700 O   0  0  0  0  0  0  0  0  0  0  0  0
    6.4720    0.0090   20.7650 N   0  0  0  0  0  0  0  0  0  0  0  0
    5.7820    0.5290   19.6450 C   0  0  0  0  0  0  0  0  0  0  0  0
    4.7960    1.5020   19.8490 C   0  0  0  0  0  0  0  0  0  0  0  0
    4.2400    2.1090   18.7170 C   0  0  0  0  0  0  0  0  0  0  0  0
    4.6880    1.7390   17.4410 C   0  0  0  0  0  0  0  0  0  0  0  0
    5.5980    0.7610   17.2320 N   0  0  0  0  0  0  0  0  0  0  0  0
    6.1440    0.1870   18.3230 C   0  0  0  0  0  0  0  0  0  0  0  0
    9.9280    0.4850   23.7130 C   0  0  0  0  0  0  0  0  0  0  0  0
   11.2730    0.7410   24.0210 C   0  0  0  0  0  0  0  0  0  0  0  0
  1  2  1  0
  2  3  1  0
  2  4  1  0
  4  5  1  0
  5  6  1  0
  6 21  2  0
  6  7  1  0
  7  8  2  0
  8  9  1  0
  9 10  1  0
  9 20  2  0
 10 11  1  0
 11 12  2  0
 11 13  1  0
 13 14  1  0
 14 15  2  0
 14 19  1  0
 15 16  1  0
 16 17  2  0
 17 18  1  0
 18 19  2  0
 20 21  1  0
M  END
