WPC0920_minimised.pdb
     RDKit          3D

 24 26  0  0  0  0  0  0  0  0999 V2000
    8.5320   -0.0710   19.8690 O   0  0  0  0  0  0  0  0  0  0  0  0
    7.7890   -0.3240   20.7970 C   0  0  0  0  0  0  0  0  0  0  0  0
    8.2020   -0.6950   22.0510 N   0  0  0  0  0  0  0  0  0  0  0  0
    9.5260   -0.5720   22.5250 C   0  0  0  0  0  0  0  0  0  0  0  0
   10.6100   -0.9610   21.7240 C   0  0  0  0  0  0  0  0  0  0  0  0
   11.9190   -0.6120   22.0780 C   0  0  0  0  0  0  0  0  0  0  0  0
   12.1490    0.1000   23.2630 C   0  0  0  0  0  0  0  0  0  0  0  0
   13.5440    0.5920   23.5860 C   0  0  0  0  0  0  0  0  0  0  0  0
   14.0730    2.0140   22.5410 S   0  0  0  0  0  0  0  0  0  0  0  0
   12.9840    3.3640   22.9420 C   0  0  0  0  0  0  0  0  0  0  0  0
   13.5350    4.6170   23.2510 C   0  0  0  0  0  0  0  0  0  0  0  0
   12.6850    5.6680   23.6260 C   0  0  0  0  0  0  0  0  0  0  0  0
   11.3030    5.4270   23.6220 C   0  0  0  0  0  0  0  0  0  0  0  0
   10.8350    4.1540   23.2620 C   0  0  0  0  0  0  0  0  0  0  0  0
   11.6640    3.1410   22.9620 N   0  0  0  0  0  0  0  0  0  0  0  0
   11.0730    0.3870   24.1250 C   0  0  0  0  0  0  0  0  0  0  0  0
    9.7610    0.0620   23.7510 C   0  0  0  0  0  0  0  0  0  0  0  0
    6.4300   -0.2170   20.6900 N   0  0  0  0  0  0  0  0  0  0  0  0
    5.7630    0.3900   19.5990 C   0  0  0  0  0  0  0  0  0  0  0  0
    4.8210    1.3940   19.8520 C   0  0  0  0  0  0  0  0  0  0  0  0
    4.2860    2.0760   18.7520 C   0  0  0  0  0  0  0  0  0  0  0  0
    4.7170    1.7510   17.4570 C   0  0  0  0  0  0  0  0  0  0  0  0
    5.5890    0.7490   17.2020 N   0  0  0  0  0  0  0  0  0  0  0  0
    6.1110    0.1000   18.2620 C   0  0  0  0  0  0  0  0  0  0  0  0
  1  2  2  0
  2  3  1  0
  2 18  1  0
  3  4  1  0
  4  5  2  0
  4 17  1  0
  5  6  1  0
  6  7  2  0
  7  8  1  0
  7 16  1  0
  8  9  1  0
  9 10  1  0
 10 11  2  0
 10 15  1  0
 11 12  1  0
 12 13  2  0
 13 14  1  0
 14 15  2  0
 16 17  2  0
 18 19  1  0
 19 20  2  0
 19 24  1  0
 20 21  1  0
 21 22  2  0
 22 23  1  0
 23 24  2  0
M  END
