WPC0727_minimised.pdb
     RDKit          3D

 24 26  0  0  0  0  0  0  0  0999 V2000
    8.5380   -0.1230   19.8650 O   0  0  0  0  0  0  0  0  0  0  0  0
    7.7780   -0.2820   20.8000 C   0  0  0  0  0  0  0  0  0  0  0  0
    8.1700   -0.5890   22.0750 N   0  0  0  0  0  0  0  0  0  0  0  0
    9.5010   -0.5080   22.5290 C   0  0  0  0  0  0  0  0  0  0  0  0
   10.5270   -1.1980   21.8680 C   0  0  0  0  0  0  0  0  0  0  0  0
   11.8680   -0.9640   22.2070 C   0  0  0  0  0  0  0  0  0  0  0  0
   12.1850   -0.0340   23.2110 C   0  0  0  0  0  0  0  0  0  0  0  0
   13.6330    0.3050   23.5220 C   0  0  0  0  0  0  0  0  0  0  0  0
   14.1670    1.3960   22.7100 N   0  0  0  0  0  0  0  0  0  0  0  0
   13.7250    2.6950   22.7560 C   0  0  0  0  0  0  0  0  0  0  0  0
   12.8280    2.9890   23.5290 O   0  0  0  0  0  0  0  0  0  0  0  0
   14.5790    3.5210   21.7250 C   0  0  0  0  0  0  0  0  0  0  0  0
   14.5460    4.8820   22.4920 C   0  0  0  0  0  0  0  0  0  0  0  0
   13.2960    5.3000   21.6580 C   0  0  0  0  0  0  0  0  0  0  0  0
   13.3620    3.9650   20.8440 C   0  0  0  0  0  0  0  0  0  0  0  0
   11.1470    0.5870   23.9300 C   0  0  0  0  0  0  0  0  0  0  0  0
    9.8090    0.3580   23.5850 C   0  0  0  0  0  0  0  0  0  0  0  0
    6.4250   -0.1160   20.6880 N   0  0  0  0  0  0  0  0  0  0  0  0
    5.7740    0.4780   19.5800 C   0  0  0  0  0  0  0  0  0  0  0  0
    4.8280    1.4830   19.8150 C   0  0  0  0  0  0  0  0  0  0  0  0
    4.2940    2.1470   18.7040 C   0  0  0  0  0  0  0  0  0  0  0  0
    4.7270    1.8010   17.4160 C   0  0  0  0  0  0  0  0  0  0  0  0
    5.6030    0.7990   17.1770 N   0  0  0  0  0  0  0  0  0  0  0  0
    6.1260    0.1680   18.2480 C   0  0  0  0  0  0  0  0  0  0  0  0
  1  2  2  0
  2  3  1  0
  2 18  1  0
  3  4  1  0
  4  5  2  0
  4 17  1  0
  5  6  1  0
  6  7  2  0
  7  8  1  0
  7 16  1  0
  8  9  1  0
  9 10  1  0
 10 12  1  0
 10 11  2  0
 12 13  1  0
 12 15  1  0
 13 14  1  0
 14 15  1  0
 16 17  2  0
 18 19  1  0
 19 20  2  0
 19 24  1  0
 20 21  1  0
 21 22  2  0
 22 23  1  0
 23 24  2  0
M  END
