WPC0924_minimised.pdb
     RDKit          3D

 21 22  0  0  1  0  0  0  0  0999 V2000
   14.4100    0.9680   22.8490 N   0  0  0  0  0  0  0  0  0  0  0  0
   13.1880    1.7110   23.1660 C   0  0  2  0  0  0  0  0  0  0  0  0
   11.9220    0.9230   22.9070 C   0  0  0  0  0  0  0  0  0  0  0  0
   11.8460   -0.0960   21.9380 C   0  0  0  0  0  0  0  0  0  0  0  0
   10.6160   -0.7140   21.6780 C   0  0  0  0  0  0  0  0  0  0  0  0
    9.4600   -0.3010   22.3570 C   0  0  0  0  0  0  0  0  0  0  0  0
    8.1870   -0.6870   21.9010 N   0  0  0  0  0  0  0  0  0  0  0  0
    7.7550   -0.4000   20.6360 C   0  0  0  0  0  0  0  0  0  0  0  0
    8.4930   -0.1360   19.7050 O   0  0  0  0  0  0  0  0  0  0  0  0
    6.3930   -0.3430   20.5350 N   0  0  0  0  0  0  0  0  0  0  0  0
    5.7200    0.3110   19.4770 C   0  0  0  0  0  0  0  0  0  0  0  0
    4.7970    1.3190   19.7780 C   0  0  0  0  0  0  0  0  0  0  0  0
    4.2760    2.0640   18.7130 C   0  0  0  0  0  0  0  0  0  0  0  0
    4.7060    1.7980   17.4050 C   0  0  0  0  0  0  0  0  0  0  0  0
    5.5630    0.7970   17.1030 N   0  0  0  0  0  0  0  0  0  0  0  0
    6.0650    0.0810   18.1280 C   0  0  0  0  0  0  0  0  0  0  0  0
    9.5450    0.6590   23.3710 C   0  0  0  0  0  0  0  0  0  0  0  0
   10.7770    1.2620   23.6510 C   0  0  0  0  0  0  0  0  0  0  0  0
   13.2250    3.3680   22.2860 P   0  0  0  0  0  0  0  0  0  0  0  0
   14.4820    4.1190   23.0830 O   0  0  0  0  0  0  0  0  0  0  0  0
   11.8330    4.1540   22.7760 O   0  0  0  0  0  0  0  0  0  0  0  0
  2  1  1  6
  2 19  1  0
  2  3  1  0
  3 18  2  0
  3  4  1  0
  4  5  2  0
  5  6  1  0
  6  7  1  0
  6 17  2  0
  7  8  1  0
  8  9  2  0
  8 10  1  0
 10 11  1  0
 11 12  2  0
 11 16  1  0
 12 13  1  0
 13 14  2  0
 14 15  1  0
 15 16  2  0
 17 18  1  0
 19 20  1  0
 19 21  1  0
M  END
