WPC0792_minimised.pdb
     RDKit          3D

 22 23  0  0  0  0  0  0  0  0999 V2000
   11.9530    3.6190   24.1740 N   0  0  0  0  0  0  0  0  0  0  0  0
   12.7760    3.2790   23.2860 C   0  0  0  0  0  0  0  0  0  0  0  0
   13.2480    4.1620   22.3620 N   0  0  0  0  0  0  0  0  0  0  0  0
   12.3500    5.1930   21.9220 O   0  0  0  0  0  0  0  0  0  0  0  0
   13.5640    2.1760   23.3090 N   0  0  0  0  0  0  0  0  0  0  0  0
   13.2400    0.8680   23.8820 C   0  0  0  0  0  0  0  0  0  0  0  0
   11.8810    0.3730   23.4410 C   0  0  0  0  0  0  0  0  0  0  0  0
   11.7520   -0.3950   22.2730 C   0  0  0  0  0  0  0  0  0  0  0  0
   10.4770   -0.7680   21.8280 C   0  0  0  0  0  0  0  0  0  0  0  0
    9.3340   -0.3570   22.5310 C   0  0  0  0  0  0  0  0  0  0  0  0
    8.0490   -0.5340   21.9850 N   0  0  0  0  0  0  0  0  0  0  0  0
    7.6980   -0.1700   20.7140 C   0  0  0  0  0  0  0  0  0  0  0  0
    8.4850    0.1080   19.8290 O   0  0  0  0  0  0  0  0  0  0  0  0
    6.3450   -0.0880   20.5470 N   0  0  0  0  0  0  0  0  0  0  0  0
    5.7130    0.5310   19.4450 C   0  0  0  0  0  0  0  0  0  0  0  0
    4.7460    1.5150   19.6820 C   0  0  0  0  0  0  0  0  0  0  0  0
    4.2460    2.2130   18.5760 C   0  0  0  0  0  0  0  0  0  0  0  0
    4.7370    1.9260   17.2950 C   0  0  0  0  0  0  0  0  0  0  0  0
    5.6380    0.9460   17.0540 N   0  0  0  0  0  0  0  0  0  0  0  0
    6.1200    0.2760   18.1190 C   0  0  0  0  0  0  0  0  0  0  0  0
    9.4670    0.3500   23.7330 C   0  0  0  0  0  0  0  0  0  0  0  0
   10.7410    0.7080   24.1930 C   0  0  0  0  0  0  0  0  0  0  0  0
  1  2  2  0
  2  3  1  0
  2  5  1  0
  3  4  1  0
  5  6  1  0
  6  7  1  0
  7 22  2  0
  7  8  1  0
  8  9  2  0
  9 10  1  0
 10 11  1  0
 10 21  2  0
 11 12  1  0
 12 13  2  0
 12 14  1  0
 14 15  1  0
 15 16  2  0
 15 20  1  0
 16 17  1  0
 17 18  2  0
 18 19  1  0
 19 20  2  0
 21 22  1  0
M  END
