WPC0734_minimised.pdb
     RDKit          3D

 21 22  0  0  0  0  0  0  0  0999 V2000
   12.4900    3.7880   22.0360 C   0  0  0  0  0  0  0  0  0  0  0  0
   13.8190    3.3750   22.6450 C   0  0  0  0  0  0  0  0  0  0  0  0
   14.4500    4.1590   23.3310 O   0  0  0  0  0  0  0  0  0  0  0  0
   14.3400    1.9690   22.3310 C   0  0  0  0  0  0  0  0  0  0  0  0
   13.8330    0.8470   23.2610 C   0  0  0  0  0  0  0  0  0  0  0  0
   12.3770    0.5040   23.0340 C   0  0  0  0  0  0  0  0  0  0  0  0
   12.0300   -0.4180   22.0340 C   0  0  0  0  0  0  0  0  0  0  0  0
   10.6810   -0.6920   21.7800 C   0  0  0  0  0  0  0  0  0  0  0  0
    9.6760   -0.0360   22.5060 C   0  0  0  0  0  0  0  0  0  0  0  0
    8.3280   -0.1730   22.1190 N   0  0  0  0  0  0  0  0  0  0  0  0
    7.8730    0.0770   20.8530 C   0  0  0  0  0  0  0  0  0  0  0  0
    8.5990    0.3150   19.9070 O   0  0  0  0  0  0  0  0  0  0  0  0
    6.5100    0.0800   20.7500 N   0  0  0  0  0  0  0  0  0  0  0  0
    5.8020    0.5770   19.6300 C   0  0  0  0  0  0  0  0  0  0  0  0
    4.8150    1.5470   19.8340 C   0  0  0  0  0  0  0  0  0  0  0  0
    4.2490    2.1450   18.7020 C   0  0  0  0  0  0  0  0  0  0  0  0
    4.6930    1.7720   17.4250 C   0  0  0  0  0  0  0  0  0  0  0  0
    5.6040    0.7940   17.2160 N   0  0  0  0  0  0  0  0  0  0  0  0
    6.1560    0.2270   18.3080 C   0  0  0  0  0  0  0  0  0  0  0  0
   10.0200    0.8420   23.5420 C   0  0  0  0  0  0  0  0  0  0  0  0
   11.3710    1.1080   23.8110 C   0  0  0  0  0  0  0  0  0  0  0  0
  1  2  1  0
  2  3  2  0
  2  4  1  0
  4  5  1  0
  5  6  1  0
  6 21  2  0
  6  7  1  0
  7  8  2  0
  8  9  1  0
  9 10  1  0
  9 20  2  0
 10 11  1  0
 11 12  2  0
 11 13  1  0
 13 14  1  0
 14 15  2  0
 14 19  1  0
 15 16  1  0
 16 17  2  0
 17 18  1  0
 18 19  2  0
 20 21  1  0
M  END
