WPC0635_minimised.pdb
     RDKit          3D

 21 22  0  0  0  0  0  0  0  0999 V2000
   14.2020    4.7660   23.3220 N   0  0  0  0  0  0  0  0  0  0  0  0
   13.0600    4.4410   22.4620 C   0  0  0  0  0  0  0  0  0  0  0  0
   12.6160    2.9970   22.7410 C   0  0  0  0  0  0  0  0  0  0  0  0
   13.7170    1.9450   22.4550 C   0  0  0  0  0  0  0  0  0  0  0  0
   13.5600    0.4970   23.5670 S   0  0  0  0  0  0  0  0  0  0  0  0
   11.8870    0.0040   23.2600 C   0  0  0  0  0  0  0  0  0  0  0  0
   11.6100   -0.8020   22.1490 C   0  0  0  0  0  0  0  0  0  0  0  0
   10.2790   -1.0440   21.7900 C   0  0  0  0  0  0  0  0  0  0  0  0
    9.2340   -0.4560   22.5180 C   0  0  0  0  0  0  0  0  0  0  0  0
    7.9250   -0.4660   22.0000 N   0  0  0  0  0  0  0  0  0  0  0  0
    7.6140   -0.0610   20.7290 C   0  0  0  0  0  0  0  0  0  0  0  0
    8.4320    0.1690   19.8580 O   0  0  0  0  0  0  0  0  0  0  0  0
    6.2710    0.1010   20.5420 N   0  0  0  0  0  0  0  0  0  0  0  0
    5.6780    0.7020   19.4090 C   0  0  0  0  0  0  0  0  0  0  0  0
    4.6970    1.6830   19.5940 C   0  0  0  0  0  0  0  0  0  0  0  0
    4.2260    2.3520   18.4580 C   0  0  0  0  0  0  0  0  0  0  0  0
    4.7590    2.0420   17.2000 C   0  0  0  0  0  0  0  0  0  0  0  0
    5.6680    1.0590   17.0060 N   0  0  0  0  0  0  0  0  0  0  0  0
    6.1220    0.4170   18.1000 C   0  0  0  0  0  0  0  0  0  0  0  0
    9.5110    0.2770   23.6810 C   0  0  0  0  0  0  0  0  0  0  0  0
   10.8430    0.5000   24.0580 C   0  0  0  0  0  0  0  0  0  0  0  0
  1  2  1  0
  2  3  1  0
  3  4  1  0
  4  5  1  0
  5  6  1  0
  6 21  2  0
  6  7  1  0
  7  8  2  0
  8  9  1  0
  9 10  1  0
  9 20  2  0
 10 11  1  0
 11 12  2  0
 11 13  1  0
 13 14  1  0
 14 15  2  0
 14 19  1  0
 15 16  1  0
 16 17  2  0
 17 18  1  0
 18 19  2  0
 20 21  1  0
M  END
