WPC0675_minimised.pdb
     RDKit          3D

 23 24  0  0  1  0  0  0  0  0999 V2000
   14.5910    4.2690   21.2290 C   0  0  0  0  0  0  0  0  0  0  0  0
   13.8270    5.2180   22.0520 N   0  0  0  0  0  0  0  0  0  0  0  0
   13.2920    4.6690   23.3130 C   0  0  1  0  0  0  0  0  0  0  0  0
   12.3130    5.6950   23.9150 C   0  0  0  0  0  0  0  0  0  0  0  0
   12.6240    3.2580   23.2500 C   0  0  0  0  0  0  0  0  0  0  0  0
   13.5890    2.1300   23.1560 N   0  0  0  0  0  0  0  0  0  0  0  0
   13.2070    0.8610   23.8110 C   0  0  0  0  0  0  0  0  0  0  0  0
   11.8020    0.3790   23.4880 C   0  0  0  0  0  0  0  0  0  0  0  0
   11.6030   -0.5640   22.4680 C   0  0  0  0  0  0  0  0  0  0  0  0
   10.3030   -0.8910   22.0570 C   0  0  0  0  0  0  0  0  0  0  0  0
    9.1990   -0.2980   22.6880 C   0  0  0  0  0  0  0  0  0  0  0  0
    7.9030   -0.4380   22.1540 N   0  0  0  0  0  0  0  0  0  0  0  0
    7.5760   -0.1240   20.8630 C   0  0  0  0  0  0  0  0  0  0  0  0
    8.3770    0.0590   19.9680 O   0  0  0  0  0  0  0  0  0  0  0  0
    6.2300    0.0220   20.6850 N   0  0  0  0  0  0  0  0  0  0  0  0
    5.6220    0.6030   19.5470 C   0  0  0  0  0  0  0  0  0  0  0  0
    4.6630    1.6060   19.7340 C   0  0  0  0  0  0  0  0  0  0  0  0
    4.1680    2.2510   18.5940 C   0  0  0  0  0  0  0  0  0  0  0  0
    4.6470    1.8860   17.3280 C   0  0  0  0  0  0  0  0  0  0  0  0
    5.5380    0.8870   17.1360 N   0  0  0  0  0  0  0  0  0  0  0  0
    6.0270    0.2770   18.2340 C   0  0  0  0  0  0  0  0  0  0  0  0
    9.3920    0.5380   23.7950 C   0  0  0  0  0  0  0  0  0  0  0  0
   10.6920    0.8700   24.2020 C   0  0  0  0  0  0  0  0  0  0  0  0
  1  2  1  0
  2  3  1  0
  3  4  1  6
  3  5  1  0
  5  6  1  0
  6  7  1  0
  7  8  1  0
  8 23  2  0
  8  9  1  0
  9 10  2  0
 10 11  1  0
 11 12  1  0
 11 22  2  0
 12 13  1  0
 13 14  2  0
 13 15  1  0
 15 16  1  0
 16 17  2  0
 16 21  1  0
 17 18  1  0
 18 19  2  0
 19 20  1  0
 20 21  2  0
 22 23  1  0
M  END
