WPC0815_minimised.pdb
     RDKit          3D

 24 26  0  0  0  0  0  0  0  0999 V2000
    8.6250    0.0830   20.0150 O   0  0  0  0  0  0  0  0  0  0  0  0
    7.8760   -0.1820   20.9370 C   0  0  0  0  0  0  0  0  0  0  0  0
    8.2860   -0.5140   22.2020 N   0  0  0  0  0  0  0  0  0  0  0  0
    9.6090   -0.3550   22.6610 C   0  0  0  0  0  0  0  0  0  0  0  0
   10.6750   -0.9130   21.9420 C   0  0  0  0  0  0  0  0  0  0  0  0
   11.9920   -0.5270   22.2230 C   0  0  0  0  0  0  0  0  0  0  0  0
   12.2420    0.4240   23.2260 C   0  0  0  0  0  0  0  0  0  0  0  0
   13.6280    1.0280   23.3830 C   0  0  0  0  0  0  0  0  0  0  0  0
   13.8230    2.3670   22.6210 C   0  0  0  0  0  0  0  0  0  0  0  0
   12.9650    3.4620   23.1170 N   0  0  0  0  0  0  0  0  0  0  0  0
   13.6380    4.7710   23.2430 C   0  0  0  0  0  0  0  0  0  0  0  0
   12.7110    5.7870   23.8880 C   0  0  0  0  0  0  0  0  0  0  0  0
   11.3830    5.6380   23.9360 C   0  0  0  0  0  0  0  0  0  0  0  0
   10.6920    4.4250   23.3490 C   0  0  0  0  0  0  0  0  0  0  0  0
   11.6500    3.6050   22.4490 C   0  0  0  0  0  0  0  0  0  0  0  0
   11.1840    0.8660   24.0410 C   0  0  0  0  0  0  0  0  0  0  0  0
    9.8650    0.4890   23.7510 C   0  0  0  0  0  0  0  0  0  0  0  0
    6.5160   -0.1270   20.8110 N   0  0  0  0  0  0  0  0  0  0  0  0
    5.8350    0.4200   19.6970 C   0  0  0  0  0  0  0  0  0  0  0  0
    4.8690    1.4110   19.9150 C   0  0  0  0  0  0  0  0  0  0  0  0
    4.3010    2.0240   18.7910 C   0  0  0  0  0  0  0  0  0  0  0  0
    4.7150    1.6380   17.5080 C   0  0  0  0  0  0  0  0  0  0  0  0
    5.6140    0.6530   17.2870 N   0  0  0  0  0  0  0  0  0  0  0  0
    6.1750    0.0770   18.3700 C   0  0  0  0  0  0  0  0  0  0  0  0
  1  2  2  0
  2  3  1  0
  2 18  1  0
  3  4  1  0
  4  5  2  0
  4 17  1  0
  5  6  1  0
  6  7  2  0
  7  8  1  0
  7 16  1  0
  8  9  1  0
  9 10  1  0
 10 11  1  0
 10 15  1  0
 11 12  1  0
 12 13  2  0
 13 14  1  0
 14 15  1  0
 16 17  2  0
 18 19  1  0
 19 20  2  0
 19 24  1  0
 20 21  1  0
 21 22  2  0
 22 23  1  0
 23 24  2  0
M  END
