WPC0830_minimised.pdb
     RDKit          3D

 24 25  0  0  1  0  0  0  0  0999 V2000
    9.1880    3.9330   22.9700 C   0  0  0  0  0  0  0  0  0  0  0  0
   10.0210    4.8820   23.8560 C   0  0  0  0  0  0  0  0  0  0  0  0
   11.4770    5.1060   23.3780 C   0  0  0  0  0  0  0  0  0  0  0  0
   12.4370    3.9120   23.6120 C   0  0  0  0  0  0  0  0  0  0  0  0
   12.6330    2.9810   22.3930 C   0  0  0  0  0  0  0  0  0  0  0  0
   13.6590    1.8310   22.6230 C   0  0  0  0  0  0  0  0  0  0  0  0
   13.2590    0.7820   23.6920 C   0  0  2  0  0  0  0  0  0  0  0  0
   14.2280   -0.2610   23.7380 O   0  0  0  0  0  0  0  0  0  0  0  0
   11.8920    0.1900   23.4110 C   0  0  0  0  0  0  0  0  0  0  0  0
   11.7000   -0.6190   22.2790 C   0  0  0  0  0  0  0  0  0  0  0  0
   10.4040   -0.9710   21.8880 C   0  0  0  0  0  0  0  0  0  0  0  0
    9.2980   -0.5020   22.6120 C   0  0  0  0  0  0  0  0  0  0  0  0
    8.0020   -0.5940   22.0660 N   0  0  0  0  0  0  0  0  0  0  0  0
    7.6860   -0.1960   20.7930 C   0  0  0  0  0  0  0  0  0  0  0  0
    8.4950    0.0460   19.9180 O   0  0  0  0  0  0  0  0  0  0  0  0
    6.3400   -0.0470   20.6100 N   0  0  0  0  0  0  0  0  0  0  0  0
    5.7420    0.5760   19.4910 C   0  0  0  0  0  0  0  0  0  0  0  0
    4.7760    1.5680   19.6990 C   0  0  0  0  0  0  0  0  0  0  0  0
    4.2970    2.2550   18.5770 C   0  0  0  0  0  0  0  0  0  0  0  0
    4.8060    1.9500   17.3070 C   0  0  0  0  0  0  0  0  0  0  0  0
    5.7010    0.9600   17.0910 N   0  0  0  0  0  0  0  0  0  0  0  0
    6.1670    0.3030   18.1720 C   0  0  0  0  0  0  0  0  0  0  0  0
    9.4910    0.2100   23.8030 C   0  0  0  0  0  0  0  0  0  0  0  0
   10.7890    0.5540   24.2070 C   0  0  0  0  0  0  0  0  0  0  0  0
  1  2  1  0
  2  3  1  0
  3  4  1  0
  4  5  1  0
  5  6  1  0
  6  7  1  0
  7  8  1  6
  7  9  1  0
  9 24  2  0
  9 10  1  0
 10 11  2  0
 11 12  1  0
 12 13  1  0
 12 23  2  0
 13 14  1  0
 14 15  2  0
 14 16  1  0
 16 17  1  0
 17 18  2  0
 17 22  1  0
 18 19  1  0
 19 20  2  0
 20 21  1  0
 21 22  2  0
 23 24  1  0
M  END
