WPC0251_minimised.pdb
     RDKit          3D

 19 20  0  0  0  0  0  0  0  0999 V2000
    8.2330   -3.6920   22.4880 C   0  0  0  0  0  0  0  0  0  0  0  0
    7.6570   -2.6480   22.3590 C   0  0  0  0  0  0  0  0  0  0  0  0
    6.9920   -1.3380   22.2700 C   0  0  0  0  0  0  0  0  0  0  0  0
    7.5760   -0.4090   21.2810 N   0  0  0  0  0  0  0  0  0  0  0  0
    8.8580    0.1180   21.4000 C   0  0  0  0  0  0  0  0  0  0  0  0
    9.2390    1.0180   20.6790 O   0  0  0  0  0  0  0  0  0  0  0  0
    9.6920   -0.4380   22.3360 N   0  0  0  0  0  0  0  0  0  0  0  0
   11.0600   -0.1320   22.4710 C   0  0  0  0  0  0  0  0  0  0  0  0
   12.0200   -1.0820   22.0970 C   0  0  0  0  0  0  0  0  0  0  0  0
   13.3860   -0.7580   22.1360 C   0  0  0  0  0  0  0  0  0  0  0  0
   13.7880    0.5130   22.5790 C   0  0  0  0  0  0  0  0  0  0  0  0
   12.8260    1.4600   22.9650 C   0  0  0  0  0  0  0  0  0  0  0  0
   11.4620    1.1400   22.9040 C   0  0  0  0  0  0  0  0  0  0  0  0
    6.7170    0.0830   20.2530 C   0  0  0  0  0  0  0  0  0  0  0  0
    5.6830    0.9820   20.5570 C   0  0  0  0  0  0  0  0  0  0  0  0
    4.9720    1.5560   19.4910 C   0  0  0  0  0  0  0  0  0  0  0  0
    5.2970    1.2060   18.1720 C   0  0  0  0  0  0  0  0  0  0  0  0
    6.2660    0.3150   17.8690 N   0  0  0  0  0  0  0  0  0  0  0  0
    6.9770   -0.2000   18.8960 C   0  0  0  0  0  0  0  0  0  0  0  0
  1  2  3  0
  2  3  1  0
  3  4  1  0
  4  5  1  0
  4 14  1  0
  5  7  1  0
  5  6  2  0
  7  8  1  0
  8  9  2  0
  8 13  1  0
  9 10  1  0
 10 11  2  0
 11 12  1  0
 12 13  2  0
 14 15  2  0
 14 19  1  0
 15 16  1  0
 16 17  2  0
 17 18  1  0
 18 19  2  0
M  END
