WPC0572_minimised.pdb
     RDKit          3D

 23 24  0  0  1  0  0  0  0  0999 V2000
   14.0830    5.6060   22.1440 C   0  0  0  0  0  0  0  0  0  0  0  0
   13.5950    4.2100   21.7480 C   0  0  2  0  0  0  0  0  0  0  0  0
   12.3920    4.3530   20.9120 N   0  0  0  0  0  0  0  0  0  0  0  0
   13.3810    3.2990   22.9780 C   0  0  0  0  0  0  0  0  0  0  0  0
   12.6510    3.6090   23.9020 O   0  0  0  0  0  0  0  0  0  0  0  0
   14.0100    2.0760   22.9030 N   0  0  0  0  0  0  0  0  0  0  0  0
   13.5870    0.8860   23.6410 C   0  0  0  0  0  0  0  0  0  0  0  0
   12.1890    0.4430   23.2740 C   0  0  0  0  0  0  0  0  0  0  0  0
   11.9750   -0.4250   22.1910 C   0  0  0  0  0  0  0  0  0  0  0  0
   10.6660   -0.7660   21.8230 C   0  0  0  0  0  0  0  0  0  0  0  0
    9.5740   -0.2380   22.5290 C   0  0  0  0  0  0  0  0  0  0  0  0
    8.2600   -0.4360   22.0650 N   0  0  0  0  0  0  0  0  0  0  0  0
    7.8400   -0.1220   20.8020 C   0  0  0  0  0  0  0  0  0  0  0  0
    8.5840    0.1710   19.8860 O   0  0  0  0  0  0  0  0  0  0  0  0
    6.4790   -0.1220   20.6780 N   0  0  0  0  0  0  0  0  0  0  0  0
    5.7830    0.4290   19.5780 C   0  0  0  0  0  0  0  0  0  0  0  0
    4.8000    1.3970   19.8160 C   0  0  0  0  0  0  0  0  0  0  0  0
    4.2320    2.0320   18.7050 C   0  0  0  0  0  0  0  0  0  0  0  0
    4.6690    1.6940   17.4170 C   0  0  0  0  0  0  0  0  0  0  0  0
    5.5820    0.7260   17.1750 N   0  0  0  0  0  0  0  0  0  0  0  0
    6.1380    0.1240   18.2460 C   0  0  0  0  0  0  0  0  0  0  0  0
    9.7870    0.5830   23.6430 C   0  0  0  0  0  0  0  0  0  0  0  0
   11.0940    0.9200   24.0170 C   0  0  0  0  0  0  0  0  0  0  0  0
  2  1  1  1
  2  3  1  0
  2  4  1  0
  4  5  2  0
  4  6  1  0
  6  7  1  0
  7  8  1  0
  8 23  2  0
  8  9  1  0
  9 10  2  0
 10 11  1  0
 11 12  1  0
 11 22  2  0
 12 13  1  0
 13 14  2  0
 13 15  1  0
 15 16  1  0
 16 17  2  0
 16 21  1  0
 17 18  1  0
 18 19  2  0
 19 20  1  0
 20 21  2  0
 22 23  1  0
M  END
