WPC0165_minimised.pdb
     RDKit          3D

 18 19  0  0  0  0  0  0  0  0999 V2000
    8.7180    0.3360   19.9640 O   0  0  0  0  0  0  0  0  0  0  0  0
    8.0600    0.2940   20.9830 C   0  0  0  0  0  0  0  0  0  0  0  0
    8.6210    0.1720   22.2240 N   0  0  0  0  0  0  0  0  0  0  0  0
   10.0120    0.2360   22.4620 C   0  0  0  0  0  0  0  0  0  0  0  0
   10.8760   -0.7200   21.9030 C   0  0  0  0  0  0  0  0  0  0  0  0
   12.2670   -0.5910   22.0540 C   0  0  0  0  0  0  0  0  0  0  0  0
   12.7940    0.4980   22.7690 C   0  0  0  0  0  0  0  0  0  0  0  0
   11.9300    1.4520   23.3290 C   0  0  0  0  0  0  0  0  0  0  0  0
   10.5400    1.3180   23.1810 C   0  0  0  0  0  0  0  0  0  0  0  0
    6.6950    0.3970   20.9660 N   0  0  0  0  0  0  0  0  0  0  0  0
    5.9390    0.7980   19.8310 C   0  0  0  0  0  0  0  0  0  0  0  0
    6.2370    0.2860   18.5450 C   0  0  0  0  0  0  0  0  0  0  0  0
    5.6790    0.7400   17.4040 N   0  0  0  0  0  0  0  0  0  0  0  0
    4.7910    1.7490   17.5220 C   0  0  0  0  0  0  0  0  0  0  0  0
    4.3670    2.2550   18.7560 C   0  0  0  0  0  0  0  0  0  0  0  0
    4.9600    1.8050   19.9450 C   0  0  0  0  0  0  0  0  0  0  0  0
    4.6100    2.5010   21.2540 C   0  0  0  0  0  0  0  0  0  0  0  0
    5.4080    3.6610   21.4360 O   0  0  0  0  0  0  0  0  0  0  0  0
  1  2  2  0
  2  3  1  0
  2 10  1  0
  3  4  1  0
  4  5  2  0
  4  9  1  0
  5  6  1  0
  6  7  2  0
  7  8  1  0
  8  9  2  0
 10 11  1  0
 11 12  2  0
 11 16  1  0
 12 13  1  0
 13 14  2  0
 14 15  1  0
 15 16  2  0
 16 17  1  0
 17 18  1  0
M  END
