WPC0398_minimised.pdb
     RDKit          3D

 21 22  0  0  0  0  0  0  0  0999 V2000
   13.8770    5.5210   22.1760 C   0  0  0  0  0  0  0  0  0  0  0  0
   13.3900    4.4570   22.4290 C   0  0  0  0  0  0  0  0  0  0  0  0
   12.8150    3.1560   22.7870 C   0  0  0  0  0  0  0  0  0  0  0  0
   13.8270    1.9970   22.6080 C   0  0  0  0  0  0  0  0  0  0  0  0
   13.4710    0.7190   23.3980 C   0  0  0  0  0  0  0  0  0  0  0  0
   12.0560    0.2470   23.1330 C   0  0  0  0  0  0  0  0  0  0  0  0
   11.7950   -0.6060   22.0500 C   0  0  0  0  0  0  0  0  0  0  0  0
   10.4710   -0.9420   21.7380 C   0  0  0  0  0  0  0  0  0  0  0  0
    9.4100   -0.4060   22.4810 C   0  0  0  0  0  0  0  0  0  0  0  0
    8.0860   -0.5300   22.0160 N   0  0  0  0  0  0  0  0  0  0  0  0
    7.6970   -0.1860   20.7490 C   0  0  0  0  0  0  0  0  0  0  0  0
    8.4630    0.0560   19.8350 O   0  0  0  0  0  0  0  0  0  0  0  0
    6.3400   -0.0850   20.6160 N   0  0  0  0  0  0  0  0  0  0  0  0
    5.6930    0.5150   19.5110 C   0  0  0  0  0  0  0  0  0  0  0  0
    4.7340    1.5080   19.7440 C   0  0  0  0  0  0  0  0  0  0  0  0
    4.2220    2.1900   18.6330 C   0  0  0  0  0  0  0  0  0  0  0  0
    4.6920    1.8760   17.3500 C   0  0  0  0  0  0  0  0  0  0  0  0
    5.5790    0.8840   17.1120 N   0  0  0  0  0  0  0  0  0  0  0  0
    6.0770    0.2330   18.1820 C   0  0  0  0  0  0  0  0  0  0  0  0
    9.6720    0.3800   23.6100 C   0  0  0  0  0  0  0  0  0  0  0  0
   10.9960    0.6970   23.9430 C   0  0  0  0  0  0  0  0  0  0  0  0
  1  2  3  0
  2  3  1  0
  3  4  1  0
  4  5  1  0
  5  6  1  0
  6 21  2  0
  6  7  1  0
  7  8  2  0
  8  9  1  0
  9 10  1  0
  9 20  2  0
 10 11  1  0
 11 12  2  0
 11 13  1  0
 13 14  1  0
 14 15  2  0
 14 19  1  0
 15 16  1  0
 16 17  2  0
 17 18  1  0
 18 19  2  0
 20 21  1  0
M  END
