WPC0964_minimised.pdb
     RDKit          3D

 19 20  0  0  0  0  0  0  0  0999 V2000
   12.1120    3.6240   22.9650 C   0  0  0  0  0  0  0  0  0  0  0  0
   13.7320    2.7690   22.7500 S   0  0  0  0  0  0  0  0  0  0  0  0
   13.4540    1.1000   23.4980 C   0  0  0  0  0  0  0  0  0  0  0  0
   12.0910    0.5280   23.1800 C   0  0  0  0  0  0  0  0  0  0  0  0
   11.9130   -0.2730   22.0430 C   0  0  0  0  0  0  0  0  0  0  0  0
   10.6290   -0.7230   21.7090 C   0  0  0  0  0  0  0  0  0  0  0  0
    9.5210   -0.3500   22.4850 C   0  0  0  0  0  0  0  0  0  0  0  0
    8.2090   -0.5780   22.0200 N   0  0  0  0  0  0  0  0  0  0  0  0
    7.7790   -0.2310   20.7670 C   0  0  0  0  0  0  0  0  0  0  0  0
    8.5150    0.0750   19.8490 O   0  0  0  0  0  0  0  0  0  0  0  0
    6.4160   -0.2000   20.6520 N   0  0  0  0  0  0  0  0  0  0  0  0
    5.7380    0.4000   19.5640 C   0  0  0  0  0  0  0  0  0  0  0  0
    4.7880    1.3960   19.8210 C   0  0  0  0  0  0  0  0  0  0  0  0
    4.2580    2.0870   18.7240 C   0  0  0  0  0  0  0  0  0  0  0  0
    4.7000    1.7770   17.4290 C   0  0  0  0  0  0  0  0  0  0  0  0
    5.5790    0.7830   17.1700 N   0  0  0  0  0  0  0  0  0  0  0  0
    6.0950    0.1250   18.2260 C   0  0  0  0  0  0  0  0  0  0  0  0
    9.7100    0.3810   23.6660 C   0  0  0  0  0  0  0  0  0  0  0  0
   10.9970    0.8080   24.0200 C   0  0  0  0  0  0  0  0  0  0  0  0
  1  2  1  0
  2  3  1  0
  3  4  1  0
  4 19  2  0
  4  5  1  0
  5  6  2  0
  6  7  1  0
  7  8  1  0
  7 18  2  0
  8  9  1  0
  9 10  2  0
  9 11  1  0
 11 12  1  0
 12 13  2  0
 12 17  1  0
 13 14  1  0
 14 15  2  0
 15 16  1  0
 16 17  2  0
 18 19  1  0
M  END
