WPC0809_minimised.pdb
     RDKit          3D

 24 26  0  0  0  0  0  0  0  0999 V2000
    8.5480    0.0510   19.8730 O   0  0  0  0  0  0  0  0  0  0  0  0
    7.8120   -0.2130   20.8030 C   0  0  0  0  0  0  0  0  0  0  0  0
    8.2370   -0.5570   22.0600 N   0  0  0  0  0  0  0  0  0  0  0  0
    9.5610   -0.4040   22.5230 C   0  0  0  0  0  0  0  0  0  0  0  0
   10.6480   -0.7960   21.7260 C   0  0  0  0  0  0  0  0  0  0  0  0
   11.9540   -0.4320   22.0740 C   0  0  0  0  0  0  0  0  0  0  0  0
   12.1780    0.3020   23.2470 C   0  0  0  0  0  0  0  0  0  0  0  0
   13.5710    0.7990   23.5690 C   0  0  0  0  0  0  0  0  0  0  0  0
   14.0360    2.3170   22.6290 S   0  0  0  0  0  0  0  0  0  0  0  0
   12.8560    3.5730   23.0770 C   0  0  0  0  0  0  0  0  0  0  0  0
   13.3310    4.6730   23.6800 N   0  0  0  0  0  0  0  0  0  0  0  0
   12.4450    5.6260   23.9950 C   0  0  0  0  0  0  0  0  0  0  0  0
   11.0860    5.4760   23.7290 C   0  0  0  0  0  0  0  0  0  0  0  0
   10.6870    4.2950   23.1060 C   0  0  0  0  0  0  0  0  0  0  0  0
   11.5740    3.3460   22.7920 N   0  0  0  0  0  0  0  0  0  0  0  0
   11.1010    0.6010   24.1030 C   0  0  0  0  0  0  0  0  0  0  0  0
    9.7920    0.2570   23.7360 C   0  0  0  0  0  0  0  0  0  0  0  0
    6.4510   -0.1420   20.6930 N   0  0  0  0  0  0  0  0  0  0  0  0
    5.7740    0.4400   19.5950 C   0  0  0  0  0  0  0  0  0  0  0  0
    4.8210    1.4370   19.8370 C   0  0  0  0  0  0  0  0  0  0  0  0
    4.2810    2.1020   18.7290 C   0  0  0  0  0  0  0  0  0  0  0  0
    4.7150    1.7660   17.4390 C   0  0  0  0  0  0  0  0  0  0  0  0
    5.5960    0.7710   17.1940 N   0  0  0  0  0  0  0  0  0  0  0  0
    6.1240    0.1380   18.2610 C   0  0  0  0  0  0  0  0  0  0  0  0
  1  2  2  0
  2  3  1  0
  2 18  1  0
  3  4  1  0
  4  5  2  0
  4 17  1  0
  5  6  1  0
  6  7  2  0
  7  8  1  0
  7 16  1  0
  8  9  1  0
  9 10  1  0
 10 11  2  0
 10 15  1  0
 11 12  1  0
 12 13  2  0
 13 14  1  0
 14 15  2  0
 16 17  2  0
 18 19  1  0
 19 20  2  0
 19 24  1  0
 20 21  1  0
 21 22  2  0
 22 23  1  0
 23 24  2  0
M  END
