WPC0911_minimised.pdb
     RDKit          3D

 21 22  0  0  0  0  0  0  0  0999 V2000
   13.5850    5.1710   21.8950 C   0  0  0  0  0  0  0  0  0  0  0  0
   12.8920    4.8510   23.2340 C   0  0  0  0  0  0  0  0  0  0  0  0
   12.3970    3.3890   23.3560 C   0  0  0  0  0  0  0  0  0  0  0  0
   13.4540    2.3240   22.9640 C   0  0  0  0  0  0  0  0  0  0  0  0
   13.2320    0.9160   23.5760 C   0  0  0  0  0  0  0  0  0  0  0  0
   11.8580    0.3400   23.2920 C   0  0  0  0  0  0  0  0  0  0  0  0
   11.6780   -0.5600   22.2300 C   0  0  0  0  0  0  0  0  0  0  0  0
   10.3860   -0.9580   21.8660 C   0  0  0  0  0  0  0  0  0  0  0  0
    9.2740   -0.4550   22.5550 C   0  0  0  0  0  0  0  0  0  0  0  0
    7.9780   -0.6170   22.0290 N   0  0  0  0  0  0  0  0  0  0  0  0
    7.6350   -0.2670   20.7500 C   0  0  0  0  0  0  0  0  0  0  0  0
    8.4270   -0.0430   19.8540 O   0  0  0  0  0  0  0  0  0  0  0  0
    6.2850   -0.1290   20.5940 N   0  0  0  0  0  0  0  0  0  0  0  0
    5.6620    0.4980   19.4910 C   0  0  0  0  0  0  0  0  0  0  0  0
    4.7090    1.4970   19.7270 C   0  0  0  0  0  0  0  0  0  0  0  0
    4.2040    2.1880   18.6190 C   0  0  0  0  0  0  0  0  0  0  0  0
    4.6710    1.8740   17.3350 C   0  0  0  0  0  0  0  0  0  0  0  0
    5.5560    0.8800   17.0950 N   0  0  0  0  0  0  0  0  0  0  0  0
    6.0510    0.2230   18.1620 C   0  0  0  0  0  0  0  0  0  0  0  0
    9.4560    0.3410   23.6940 C   0  0  0  0  0  0  0  0  0  0  0  0
   10.7500    0.7260   24.0720 C   0  0  0  0  0  0  0  0  0  0  0  0
  1  2  1  0
  2  3  1  0
  3  4  1  0
  4  5  1  0
  5  6  1  0
  6 21  2  0
  6  7  1  0
  7  8  2  0
  8  9  1  0
  9 10  1  0
  9 20  2  0
 10 11  1  0
 11 12  2  0
 11 13  1  0
 13 14  1  0
 14 15  2  0
 14 19  1  0
 15 16  1  0
 16 17  2  0
 17 18  1  0
 18 19  2  0
 20 21  1  0
M  END
