WPC0633_minimised.pdb
     RDKit          3D

 23 24  0  0  1  0  0  0  0  0999 V2000
   14.0060   -0.9560   23.9070 C   0  0  0  0  0  0  0  0  0  0  0  0
   12.8950    0.1040   23.8680 C   0  0  1  0  0  0  0  0  0  0  0  0
   13.3300    1.1720   22.9640 N   0  0  0  0  0  0  0  0  0  0  0  0
   12.4520    2.4800   22.5490 S   0  0  0  0  0  0  0  0  0  0  0  0
   11.0140    2.6120   23.5730 C   0  0  0  0  0  0  0  0  0  0  0  0
   12.0750    2.0190   21.2360 O   0  0  0  0  0  0  0  0  0  0  0  0
   13.3300    3.5980   22.7820 O   0  0  0  0  0  0  0  0  0  0  0  0
   11.5660   -0.5080   23.4670 C   0  0  0  0  0  0  0  0  0  0  0  0
   11.4170   -1.1070   22.2060 C   0  0  0  0  0  0  0  0  0  0  0  0
   10.1470   -1.4800   21.7580 C   0  0  0  0  0  0  0  0  0  0  0  0
    9.0110   -1.2190   22.5380 C   0  0  0  0  0  0  0  0  0  0  0  0
    7.7100   -1.2630   21.9860 N   0  0  0  0  0  0  0  0  0  0  0  0
    7.3840   -0.9240   20.6950 C   0  0  0  0  0  0  0  0  0  0  0  0
    8.1320   -0.9840   19.7380 O   0  0  0  0  0  0  0  0  0  0  0  0
    6.1050   -0.4520   20.5960 N   0  0  0  0  0  0  0  0  0  0  0  0
    5.5660    0.2800   19.5090 C   0  0  0  0  0  0  0  0  0  0  0  0
    4.6910    1.3390   19.7850 C   0  0  0  0  0  0  0  0  0  0  0  0
    4.2360    2.1100   18.7080 C   0  0  0  0  0  0  0  0  0  0  0  0
    4.6820    1.8220   17.4100 C   0  0  0  0  0  0  0  0  0  0  0  0
    5.4940    0.7790   17.1310 N   0  0  0  0  0  0  0  0  0  0  0  0
    5.9320    0.0360   18.1660 C   0  0  0  0  0  0  0  0  0  0  0  0
    9.1730   -0.7440   23.8490 C   0  0  0  0  0  0  0  0  0  0  0  0
   10.4520   -0.4130   24.3240 C   0  0  0  0  0  0  0  0  0  0  0  0
  2  1  1  6
  2  3  1  0
  2  8  1  0
  3  4  1  0
  4  5  1  0
  4  6  2  0
  4  7  2  0
  8 23  2  0
  8  9  1  0
  9 10  2  0
 10 11  1  0
 11 12  1  0
 11 22  2  0
 12 13  1  0
 13 14  2  0
 13 15  1  0
 15 16  1  0
 16 17  2  0
 16 21  1  0
 17 18  1  0
 18 19  2  0
 19 20  1  0
 20 21  2  0
 22 23  1  0
M  END
