WPC0419_minimised.pdb
     RDKit          3D

 21 22  0  0  0  0  0  0  0  0999 V2000
   13.2440    5.4400   22.3960 C   0  0  0  0  0  0  0  0  0  0  0  0
   14.0640    4.1470   22.4220 C   0  0  0  0  0  0  0  0  0  0  0  0
   13.2340    2.9530   22.9150 C   0  0  0  0  0  0  0  0  0  0  0  0
   14.1130    1.7830   23.0020 N   0  0  0  0  0  0  0  0  0  0  0  0
   13.5970    0.5990   23.6990 C   0  0  0  0  0  0  0  0  0  0  0  0
   12.1750    0.2330   23.3240 C   0  0  0  0  0  0  0  0  0  0  0  0
   11.9310   -0.6160   22.2340 C   0  0  0  0  0  0  0  0  0  0  0  0
   10.6120   -0.8980   21.8510 C   0  0  0  0  0  0  0  0  0  0  0  0
    9.5370   -0.3290   22.5490 C   0  0  0  0  0  0  0  0  0  0  0  0
    8.2200   -0.4630   22.0690 N   0  0  0  0  0  0  0  0  0  0  0  0
    7.8290   -0.1460   20.7970 C   0  0  0  0  0  0  0  0  0  0  0  0
    8.5900    0.0990   19.8810 O   0  0  0  0  0  0  0  0  0  0  0  0
    6.4700   -0.0790   20.6660 N   0  0  0  0  0  0  0  0  0  0  0  0
    5.7960    0.4900   19.5600 C   0  0  0  0  0  0  0  0  0  0  0  0
    4.8200    1.4650   19.7940 C   0  0  0  0  0  0  0  0  0  0  0  0
    4.2670    2.1120   18.6820 C   0  0  0  0  0  0  0  0  0  0  0  0
    4.7110    1.7770   17.3950 C   0  0  0  0  0  0  0  0  0  0  0  0
    5.6160    0.8000   17.1570 N   0  0  0  0  0  0  0  0  0  0  0  0
    6.1580    0.1880   18.2300 C   0  0  0  0  0  0  0  0  0  0  0  0
    9.7760    0.4680   23.6770 C   0  0  0  0  0  0  0  0  0  0  0  0
   11.0940    0.7450   24.0660 C   0  0  0  0  0  0  0  0  0  0  0  0
  1  2  1  0
  2  3  1  0
  3  4  1  0
  4  5  1  0
  5  6  1  0
  6 21  2  0
  6  7  1  0
  7  8  2  0
  8  9  1  0
  9 10  1  0
  9 20  2  0
 10 11  1  0
 11 12  2  0
 11 13  1  0
 13 14  1  0
 14 15  2  0
 14 19  1  0
 15 16  1  0
 16 17  2  0
 17 18  1  0
 18 19  2  0
 20 21  1  0
M  END
