WPC0660_minimised.pdb
     RDKit          3D

 22 23  0  0  0  0  0  0  0  0999 V2000
   15.6460    4.3090   19.4190 C   0  0  0  0  0  0  0  0  0  0  0  0
   14.7360    3.9870   20.5180 C   0  0  0  0  0  0  0  0  0  0  0  0
   14.0400    3.6100   21.4150 C   0  0  0  0  0  0  0  0  0  0  0  0
   13.2620    2.9970   22.4900 C   0  0  0  0  0  0  0  0  0  0  0  0
   13.9670    1.7710   22.8880 N   0  0  0  0  0  0  0  0  0  0  0  0
   13.3130    0.8710   23.8460 C   0  0  0  0  0  0  0  0  0  0  0  0
   11.8860    0.4950   23.5010 C   0  0  0  0  0  0  0  0  0  0  0  0
   11.6190   -0.5860   22.6460 C   0  0  0  0  0  0  0  0  0  0  0  0
   10.3000   -0.8660   22.2570 C   0  0  0  0  0  0  0  0  0  0  0  0
    9.2460   -0.0820   22.7510 C   0  0  0  0  0  0  0  0  0  0  0  0
    7.9430   -0.2370   22.2430 N   0  0  0  0  0  0  0  0  0  0  0  0
    7.6120    0.0150   20.9410 C   0  0  0  0  0  0  0  0  0  0  0  0
    8.4180    0.1940   20.0510 O   0  0  0  0  0  0  0  0  0  0  0  0
    6.2630    0.1030   20.7430 N   0  0  0  0  0  0  0  0  0  0  0  0
    5.6580    0.6440   19.5850 C   0  0  0  0  0  0  0  0  0  0  0  0
    4.6870    1.6400   19.7400 C   0  0  0  0  0  0  0  0  0  0  0  0
    4.2090    2.2650   18.5830 C   0  0  0  0  0  0  0  0  0  0  0  0
    4.7170    1.8900   17.3310 C   0  0  0  0  0  0  0  0  0  0  0  0
    5.6150    0.8920   17.1670 N   0  0  0  0  0  0  0  0  0  0  0  0
    6.0860    0.2990   18.2830 C   0  0  0  0  0  0  0  0  0  0  0  0
    9.5010    0.9450   23.6690 C   0  0  0  0  0  0  0  0  0  0  0  0
   10.8200    1.2340   24.0450 C   0  0  0  0  0  0  0  0  0  0  0  0
  1  2  1  0
  2  3  3  0
  3  4  1  0
  4  5  1  0
  5  6  1  0
  6  7  1  0
  7 22  2  0
  7  8  1  0
  8  9  2  0
  9 10  1  0
 10 11  1  0
 10 21  2  0
 11 12  1  0
 12 13  2  0
 12 14  1  0
 14 15  1  0
 15 16  2  0
 15 20  1  0
 16 17  1  0
 17 18  2  0
 18 19  1  0
 19 20  2  0
 21 22  1  0
M  END
