WPC0687_minimised.pdb
     RDKit          3D

 23 24  0  0  1  0  0  0  0  0999 V2000
   11.8280    3.7390   24.0040 C   0  0  0  0  0  0  0  0  0  0  0  0
   12.6220    3.3280   22.7420 C   0  0  2  0  0  0  0  0  0  0  0  0
   13.8590    1.9640   22.9750 S   0  0  0  0  0  0  0  0  0  0  0  0
   13.0970    0.5990   23.9270 C   0  0  0  0  0  0  0  0  0  0  0  0
   11.7230    0.1990   23.4480 C   0  0  0  0  0  0  0  0  0  0  0  0
   11.5820   -0.3980   22.1880 C   0  0  0  0  0  0  0  0  0  0  0  0
   10.3050   -0.7020   21.7080 C   0  0  0  0  0  0  0  0  0  0  0  0
    9.1660   -0.3760   22.4610 C   0  0  0  0  0  0  0  0  0  0  0  0
    7.8810   -0.4610   21.8890 N   0  0  0  0  0  0  0  0  0  0  0  0
    7.5680   -0.0410   20.6250 C   0  0  0  0  0  0  0  0  0  0  0  0
    8.3810    0.2610   19.7710 O   0  0  0  0  0  0  0  0  0  0  0  0
    6.2200    0.0520   20.4260 N   0  0  0  0  0  0  0  0  0  0  0  0
    5.6170    0.6740   19.3110 C   0  0  0  0  0  0  0  0  0  0  0  0
    4.6270    1.6410   19.5210 C   0  0  0  0  0  0  0  0  0  0  0  0
    4.1590    2.3410   18.4030 C   0  0  0  0  0  0  0  0  0  0  0  0
    4.7050    2.0770   17.1400 C   0  0  0  0  0  0  0  0  0  0  0  0
    5.6250    1.1090   16.9220 N   0  0  0  0  0  0  0  0  0  0  0  0
    6.0740    0.4350   17.9980 C   0  0  0  0  0  0  0  0  0  0  0  0
    9.3100    0.1430   23.7550 C   0  0  0  0  0  0  0  0  0  0  0  0
   10.5910    0.4120   24.2570 C   0  0  0  0  0  0  0  0  0  0  0  0
   13.4360    4.5240   22.2460 C   0  0  0  0  0  0  0  0  0  0  0  0
   14.4510    4.9120   22.7890 O   0  0  0  0  0  0  0  0  0  0  0  0
   12.8660    5.2560   21.2850 O   0  0  0  0  0  0  0  0  0  0  0  0
  2  1  1  1
  2 21  1  0
  2  3  1  0
  3  4  1  0
  4  5  1  0
  5 20  2  0
  5  6  1  0
  6  7  2  0
  7  8  1  0
  8  9  1  0
  8 19  2  0
  9 10  1  0
 10 11  2  0
 10 12  1  0
 12 13  1  0
 13 14  2  0
 13 18  1  0
 14 15  1  0
 15 16  2  0
 16 17  1  0
 17 18  2  0
 19 20  1  0
 21 22  2  0
 21 23  1  0
M  END
