WPC0531_minimised.pdb
     RDKit          3D

 23 24  0  0  0  0  0  0  0  0999 V2000
   12.2270    6.1060   24.2980 C   0  0  0  0  0  0  0  0  0  0  0  0
   11.9770    4.9530   23.2980 C   0  0  0  0  0  0  0  0  0  0  0  0
   13.2190    4.1180   22.9880 C   0  0  0  0  0  0  0  0  0  0  0  0
   14.3610    4.5290   23.1090 O   0  0  0  0  0  0  0  0  0  0  0  0
   12.8970    2.7970   23.0020 O   0  0  0  0  0  0  0  0  0  0  0  0
   13.8790    1.7940   22.6820 C   0  0  0  0  0  0  0  0  0  0  0  0
   13.5080    0.4890   23.4060 C   0  0  0  0  0  0  0  0  0  0  0  0
   12.0670    0.0830   23.1550 C   0  0  0  0  0  0  0  0  0  0  0  0
   11.7510   -0.8070   22.1160 C   0  0  0  0  0  0  0  0  0  0  0  0
   10.4080   -1.0720   21.8130 C   0  0  0  0  0  0  0  0  0  0  0  0
    9.3830   -0.4330   22.5240 C   0  0  0  0  0  0  0  0  0  0  0  0
    8.0550   -0.5020   22.0620 N   0  0  0  0  0  0  0  0  0  0  0  0
    7.6780   -0.1520   20.7930 C   0  0  0  0  0  0  0  0  0  0  0  0
    8.4530    0.0620   19.8790 O   0  0  0  0  0  0  0  0  0  0  0  0
    6.3250   -0.0180   20.6590 N   0  0  0  0  0  0  0  0  0  0  0  0
    5.6810    0.5670   19.5440 C   0  0  0  0  0  0  0  0  0  0  0  0
    4.7180    1.5590   19.7610 C   0  0  0  0  0  0  0  0  0  0  0  0
    4.1980    2.2170   18.6400 C   0  0  0  0  0  0  0  0  0  0  0  0
    4.6620    1.8790   17.3600 C   0  0  0  0  0  0  0  0  0  0  0  0
    5.5550    0.8880   17.1380 N   0  0  0  0  0  0  0  0  0  0  0  0
    6.0620    0.2610   18.2190 C   0  0  0  0  0  0  0  0  0  0  0  0
    9.6930    0.3940   23.6100 C   0  0  0  0  0  0  0  0  0  0  0  0
   11.0340    0.6440   23.9300 C   0  0  0  0  0  0  0  0  0  0  0  0
  1  2  1  0
  2  3  1  0
  3  4  2  0
  3  5  1  0
  5  6  1  0
  6  7  1  0
  7  8  1  0
  8 23  2  0
  8  9  1  0
  9 10  2  0
 10 11  1  0
 11 12  1  0
 11 22  2  0
 12 13  1  0
 13 14  2  0
 13 15  1  0
 15 16  1  0
 16 17  2  0
 16 21  1  0
 17 18  1  0
 18 19  2  0
 19 20  1  0
 20 21  2  0
 22 23  1  0
M  END
