WPC0371_minimised.pdb
     RDKit          3D

 24 25  0  0  1  0  0  0  0  0999 V2000
   11.2890    5.2330   23.5950 C   0  0  0  0  0  0  0  0  0  0  0  0
   12.8260    5.3450   23.7320 C   0  0  0  0  0  0  0  0  0  0  0  0
   13.6330    4.2970   22.9250 C   0  0  2  0  0  0  0  0  0  0  0  0
   13.4130    4.4280   21.4040 C   0  0  0  0  0  0  0  0  0  0  0  0
   13.2280    2.9860   23.3670 O   0  0  0  0  0  0  0  0  0  0  0  0
   13.9520    1.8840   23.0140 C   0  0  0  0  0  0  0  0  0  0  0  0
   14.9960    1.9100   22.3920 O   0  0  0  0  0  0  0  0  0  0  0  0
   13.4280    0.6030   23.6520 C   0  0  0  0  0  0  0  0  0  0  0  0
   11.9780    0.2970   23.3190 C   0  0  0  0  0  0  0  0  0  0  0  0
   11.6610   -0.7050   22.3860 C   0  0  0  0  0  0  0  0  0  0  0  0
   10.3260   -0.9240   22.0180 C   0  0  0  0  0  0  0  0  0  0  0  0
    9.3050   -0.1580   22.6010 C   0  0  0  0  0  0  0  0  0  0  0  0
    7.9830   -0.2590   22.1300 N   0  0  0  0  0  0  0  0  0  0  0  0
    7.6150    0.0160   20.8430 C   0  0  0  0  0  0  0  0  0  0  0  0
    8.3960    0.2000   19.9290 O   0  0  0  0  0  0  0  0  0  0  0  0
    6.2620    0.1190   20.6900 N   0  0  0  0  0  0  0  0  0  0  0  0
    5.6200    0.6620   19.5540 C   0  0  0  0  0  0  0  0  0  0  0  0
    4.6510    1.6560   19.7390 C   0  0  0  0  0  0  0  0  0  0  0  0
    4.1280    2.2730   18.5980 C   0  0  0  0  0  0  0  0  0  0  0  0
    4.5900    1.8920   17.3300 C   0  0  0  0  0  0  0  0  0  0  0  0
    5.4900    0.9000   17.1390 N   0  0  0  0  0  0  0  0  0  0  0  0
    6.0040    0.3160   18.2390 C   0  0  0  0  0  0  0  0  0  0  0  0
    9.6100    0.7900   23.5860 C   0  0  0  0  0  0  0  0  0  0  0  0
   10.9450    1.0170   23.9460 C   0  0  0  0  0  0  0  0  0  0  0  0
  1  2  1  0
  2  3  1  0
  3  4  1  6
  3  5  1  0
  5  6  1  0
  6  7  2  0
  6  8  1  0
  8  9  1  0
  9 24  2  0
  9 10  1  0
 10 11  2  0
 11 12  1  0
 12 13  1  0
 12 23  2  0
 13 14  1  0
 14 15  2  0
 14 16  1  0
 16 17  1  0
 17 18  2  0
 17 22  1  0
 18 19  1  0
 19 20  2  0
 20 21  1  0
 21 22  2  0
 23 24  1  0
M  END
