WPC0621_minimised.pdb
     RDKit          3D

 24 26  0  0  0  0  0  0  0  0999 V2000
    8.4580    0.3420   19.8780 O   0  0  0  0  0  0  0  0  0  0  0  0
    7.7140    0.2150   20.8330 C   0  0  0  0  0  0  0  0  0  0  0  0
    8.1430   -0.1030   22.0930 N   0  0  0  0  0  0  0  0  0  0  0  0
    9.5000   -0.3110   22.4000 C   0  0  0  0  0  0  0  0  0  0  0  0
   10.2010   -1.2970   21.6910 C   0  0  0  0  0  0  0  0  0  0  0  0
   11.5950   -1.3460   21.7640 C   0  0  0  0  0  0  0  0  0  0  0  0
   12.2860   -0.4310   22.5600 C   0  0  0  0  0  0  0  0  0  0  0  0
   14.0500   -0.4080   22.4430 S   0  0  0  0  0  0  0  0  0  0  0  0
   14.3040    1.1860   21.5820 C   0  0  0  0  0  0  0  0  0  0  0  0
   14.6720    2.2760   22.5950 C   0  0  0  0  0  0  0  0  0  0  0  0
   13.8720    3.4990   22.5270 N   0  0  0  0  0  0  0  0  0  0  0  0
   14.3020    4.8040   22.5070 C   0  0  0  0  0  0  0  0  0  0  0  0
   13.2560    5.5950   22.4670 N   0  0  0  0  0  0  0  0  0  0  0  0
   12.1810    4.7380   22.4890 C   0  0  0  0  0  0  0  0  0  0  0  0
   12.5200    3.4640   22.5580 N   0  0  0  0  0  0  0  0  0  0  0  0
   11.5840    0.4960   23.3470 C   0  0  0  0  0  0  0  0  0  0  0  0
   10.1830    0.5630   23.2600 C   0  0  0  0  0  0  0  0  0  0  0  0
    6.3600    0.3760   20.7400 N   0  0  0  0  0  0  0  0  0  0  0  0
    5.6730    0.8400   19.5930 C   0  0  0  0  0  0  0  0  0  0  0  0
    4.6710    1.8040   19.7530 C   0  0  0  0  0  0  0  0  0  0  0  0
    4.1090    2.3520   18.5940 C   0  0  0  0  0  0  0  0  0  0  0  0
    4.5730    1.9410   17.3370 C   0  0  0  0  0  0  0  0  0  0  0  0
    5.4880    0.9600   17.1700 N   0  0  0  0  0  0  0  0  0  0  0  0
    6.0350    0.4390   18.2870 C   0  0  0  0  0  0  0  0  0  0  0  0
  1  2  2  0
  2  3  1  0
  2 18  1  0
  3  4  1  0
  4  5  2  0
  4 17  1  0
  5  6  1  0
  6  7  2  0
  7  8  1  0
  7 16  1  0
  8  9  1  0
  9 10  1  0
 10 11  1  0
 11 12  1  0
 11 15  1  0
 12 13  2  0
 13 14  1  0
 14 15  2  0
 16 17  2  0
 18 19  1  0
 19 20  2  0
 19 24  1  0
 20 21  1  0
 21 22  2  0
 22 23  1  0
 23 24  2  0
M  END
