WPC0023_minimised.pdb
     RDKit          3D

 23 24  0  0  0  0  0  0  0  0999 V2000
    6.4520    3.7440   25.3810 C   0  0  0  0  0  0  0  0  0  0  0  0
    6.8010    3.5980   24.1000 C   0  0  0  0  0  0  0  0  0  0  0  0
    7.4860    2.3580   23.6010 C   0  0  0  0  0  0  0  0  0  0  0  0
    6.7830    1.8240   22.4830 O   0  0  0  0  0  0  0  0  0  0  0  0
    5.5510    1.1670   22.5910 C   0  0  0  0  0  0  0  0  0  0  0  0
    4.9870    1.0480   23.7120 O   0  0  0  0  0  0  0  0  0  0  0  0
    4.9090    0.6470   21.4220 N   0  0  0  0  0  0  0  0  0  0  0  0
    5.5360    0.6450   20.1320 C   0  0  0  0  0  0  0  0  0  0  0  0
    4.8880    1.2600   19.0580 C   0  0  0  0  0  0  0  0  0  0  0  0
    5.4840    1.2510   17.7960 C   0  0  0  0  0  0  0  0  0  0  0  0
    6.6810    0.6420   17.6090 N   0  0  0  0  0  0  0  0  0  0  0  0
    7.3340    0.0340   18.6290 C   0  0  0  0  0  0  0  0  0  0  0  0
    6.7790    0.0230   19.9130 C   0  0  0  0  0  0  0  0  0  0  0  0
    7.4640   -0.6440   20.9750 N   0  0  0  0  0  0  0  0  0  0  0  0
    8.7750   -0.2410   21.3790 C   0  0  0  0  0  0  0  0  0  0  0  0
    9.3250    0.7620   20.8480 O   0  0  0  0  0  0  0  0  0  0  0  0
    9.4400   -0.9370   22.4280 N   0  0  0  0  0  0  0  0  0  0  0  0
   10.7380   -0.5080   22.8170 C   0  0  0  0  0  0  0  0  0  0  0  0
   11.8470   -0.9040   22.0640 C   0  0  0  0  0  0  0  0  0  0  0  0
   13.1130   -0.4100   22.3780 C   0  0  0  0  0  0  0  0  0  0  0  0
   13.2640    0.4950   23.4320 C   0  0  0  0  0  0  0  0  0  0  0  0
   12.1500    0.9080   24.1710 C   0  0  0  0  0  0  0  0  0  0  0  0
   10.8840    0.4070   23.8640 C   0  0  0  0  0  0  0  0  0  0  0  0
  1  2  1  0
  2  3  1  0
  3  4  1  0
  4  5  1  0
  5  6  2  0
  5  7  1  0
  7  8  1  0
  8  9  2  0
  8 13  1  0
  9 10  1  0
 10 11  2  0
 11 12  1  0
 12 13  2  0
 13 14  1  0
 14 15  1  0
 15 16  2  0
 15 17  1  0
 17 18  1  0
 18 19  2  0
 18 23  1  0
 19 20  1  0
 20 21  2  0
 21 22  1  0
 22 23  2  0
M  END
