WPC0460_minimised.pdb
     RDKit          3D

 22 23  0  0  0  0  0  0  0  0999 V2000
   11.4880    4.4720   22.5190 C   0  0  0  0  0  0  0  0  0  0  0  0
   12.6480    4.5400   23.4140 N   0  0  0  0  0  0  0  0  0  0  0  0
   12.7470    5.7830   24.0990 O   0  0  0  0  0  0  0  0  0  0  0  0
   13.8120    3.7810   23.2730 C   0  0  0  0  0  0  0  0  0  0  0  0
   14.8750    4.3410   23.4810 O   0  0  0  0  0  0  0  0  0  0  0  0
   13.7870    2.2470   23.0560 C   0  0  0  0  0  0  0  0  0  0  0  0
   12.4490    1.5170   22.9950 C   0  0  0  0  0  0  0  0  0  0  0  0
   12.2400    0.5960   21.9580 C   0  0  0  0  0  0  0  0  0  0  0  0
   10.9840    0.0020   21.7860 C   0  0  0  0  0  0  0  0  0  0  0  0
    9.9200    0.3410   22.6350 C   0  0  0  0  0  0  0  0  0  0  0  0
    8.5950   -0.0160   22.2920 N   0  0  0  0  0  0  0  0  0  0  0  0
    8.0540    0.1770   21.0440 C   0  0  0  0  0  0  0  0  0  0  0  0
    8.7060    0.4720   20.0610 O   0  0  0  0  0  0  0  0  0  0  0  0
    6.6910    0.0610   20.9810 N   0  0  0  0  0  0  0  0  0  0  0  0
    5.9320    0.4930   19.8640 C   0  0  0  0  0  0  0  0  0  0  0  0
    4.9610    1.4850   20.0460 C   0  0  0  0  0  0  0  0  0  0  0  0
    4.3600    2.0270   18.9030 C   0  0  0  0  0  0  0  0  0  0  0  0
    4.7450    1.5700   17.6340 C   0  0  0  0  0  0  0  0  0  0  0  0
    5.6420    0.5750   17.4470 N   0  0  0  0  0  0  0  0  0  0  0  0
    6.2350    0.0700   18.5490 C   0  0  0  0  0  0  0  0  0  0  0  0
   10.1600    1.1540   23.7530 C   0  0  0  0  0  0  0  0  0  0  0  0
   11.4300    1.7220   23.9470 C   0  0  0  0  0  0  0  0  0  0  0  0
  1  2  1  0
  2  3  1  0
  2  4  1  0
  4  5  2  0
  4  6  1  0
  6  7  1  0
  7 22  2  0
  7  8  1  0
  8  9  2  0
  9 10  1  0
 10 11  1  0
 10 21  2  0
 11 12  1  0
 12 13  2  0
 12 14  1  0
 14 15  1  0
 15 16  2  0
 15 20  1  0
 16 17  1  0
 17 18  2  0
 18 19  1  0
 19 20  2  0
 21 22  1  0
M  END
