WPC0266_minimised.pdb
     RDKit          3D

 23 24  0  0  0  0  0  0  0  0999 V2000
    6.5190   -3.7650   23.9340 C   0  0  0  0  0  0  0  0  0  0  0  0
    7.7510   -3.9440   23.0160 C   0  0  0  0  0  0  0  0  0  0  0  0
    7.5840   -5.1480   22.0590 C   0  0  0  0  0  0  0  0  0  0  0  0
    9.0270   -4.1300   23.8680 C   0  0  0  0  0  0  0  0  0  0  0  0
    7.9810   -2.7190   22.2790 O   0  0  0  0  0  0  0  0  0  0  0  0
    7.1380   -2.1680   21.3560 C   0  0  0  0  0  0  0  0  0  0  0  0
    6.1240   -2.7320   20.9690 O   0  0  0  0  0  0  0  0  0  0  0  0
    7.5270   -0.9170   20.8780 N   0  0  0  0  0  0  0  0  0  0  0  0
    8.7210   -0.2250   21.1140 C   0  0  0  0  0  0  0  0  0  0  0  0
    8.9210    0.8630   20.6050 O   0  0  0  0  0  0  0  0  0  0  0  0
    9.6940   -0.7870   21.9060 N   0  0  0  0  0  0  0  0  0  0  0  0
   10.9920   -0.2930   22.1580 C   0  0  0  0  0  0  0  0  0  0  0  0
   12.0860   -1.1430   21.9500 C   0  0  0  0  0  0  0  0  0  0  0  0
   13.3940   -0.6790   22.1520 C   0  0  0  0  0  0  0  0  0  0  0  0
   13.6090    0.6320   22.6060 C   0  0  0  0  0  0  0  0  0  0  0  0
   12.5130    1.4800   22.8390 C   0  0  0  0  0  0  0  0  0  0  0  0
   11.2060    1.0210   22.6070 C   0  0  0  0  0  0  0  0  0  0  0  0
    6.6200   -0.2520   19.9850 C   0  0  0  0  0  0  0  0  0  0  0  0
    5.6840    0.6750   20.4750 C   0  0  0  0  0  0  0  0  0  0  0  0
    4.9120    1.3930   19.5470 C   0  0  0  0  0  0  0  0  0  0  0  0
    5.0930    1.1720   18.1730 C   0  0  0  0  0  0  0  0  0  0  0  0
    5.9760    0.2700   17.6930 N   0  0  0  0  0  0  0  0  0  0  0  0
    6.7330   -0.4010   18.5860 C   0  0  0  0  0  0  0  0  0  0  0  0
  1  2  1  0
  2  5  1  0
  2  3  1  0
  2  4  1  0
  5  6  1  0
  6  8  1  0
  6  7  2  0
  8  9  1  0
  8 18  1  0
  9 11  1  0
  9 10  2  0
 11 12  1  0
 12 13  2  0
 12 17  1  0
 13 14  1  0
 14 15  2  0
 15 16  1  0
 16 17  2  0
 18 19  2  0
 18 23  1  0
 19 20  1  0
 20 21  2  0
 21 22  1  0
 22 23  2  0
M  END
