WPC0642_minimised.pdb
     RDKit          3D

 24 25  0  0  1  0  0  0  0  0999 V2000
   14.0070    5.9030   21.4490 C   0  0  0  0  0  0  0  0  0  0  0  0
   12.9680    5.0760   22.2400 C   0  0  0  0  0  0  0  0  0  0  0  0
   13.2760    3.6680   22.1430 O   0  0  0  0  0  0  0  0  0  0  0  0
   14.3830    3.2080   22.7950 C   0  0  0  0  0  0  0  0  0  0  0  0
   15.0890    3.9500   23.4590 O   0  0  0  0  0  0  0  0  0  0  0  0
   14.5690    1.6650   22.7480 C   0  0  2  0  0  0  0  0  0  0  0  0
   14.4590    1.0860   21.3270 C   0  0  0  0  0  0  0  0  0  0  0  0
   13.6840    0.9330   23.7000 N   0  0  0  0  0  0  0  0  0  0  0  0
   12.3530    0.6780   23.4030 C   0  0  0  0  0  0  0  0  0  0  0  0
   12.0000   -0.3590   22.5230 C   0  0  0  0  0  0  0  0  0  0  0  0
   10.6610   -0.5560   22.1600 C   0  0  0  0  0  0  0  0  0  0  0  0
    9.6660    0.2750   22.6920 C   0  0  0  0  0  0  0  0  0  0  0  0
    8.3400    0.1650   22.2350 N   0  0  0  0  0  0  0  0  0  0  0  0
    7.9630    0.3070   20.9280 C   0  0  0  0  0  0  0  0  0  0  0  0
    8.7380    0.4230   19.9980 O   0  0  0  0  0  0  0  0  0  0  0  0
    6.6060    0.3430   20.7750 N   0  0  0  0  0  0  0  0  0  0  0  0
    5.9270    0.7780   19.6140 C   0  0  0  0  0  0  0  0  0  0  0  0
    4.9060    1.7240   19.7580 C   0  0  0  0  0  0  0  0  0  0  0  0
    4.3390    2.2510   18.5930 C   0  0  0  0  0  0  0  0  0  0  0  0
    4.8170    1.8380   17.3430 C   0  0  0  0  0  0  0  0  0  0  0  0
    5.7570    0.8780   17.1910 N   0  0  0  0  0  0  0  0  0  0  0  0
    6.3140    0.3790   18.3150 C   0  0  0  0  0  0  0  0  0  0  0  0
   10.0030    1.2700   23.6220 C   0  0  0  0  0  0  0  0  0  0  0  0
   11.3470    1.4690   23.9770 C   0  0  0  0  0  0  0  0  0  0  0  0
  1  2  1  0
  2  3  1  0
  3  4  1  0
  4  5  2  0
  4  6  1  0
  6  7  1  6
  6  8  1  0
  8  9  1  0
  9 24  2  0
  9 10  1  0
 10 11  2  0
 11 12  1  0
 12 13  1  0
 12 23  2  0
 13 14  1  0
 14 15  2  0
 14 16  1  0
 16 17  1  0
 17 18  2  0
 17 22  1  0
 18 19  1  0
 19 20  2  0
 20 21  1  0
 21 22  2  0
 23 24  1  0
M  END
