WPC0130_minimised.pdb
     RDKit          3D

 24 26  0  0  0  0  0  0  0  0999 V2000
    9.2140    1.0090   20.6090 O   0  0  0  0  0  0  0  0  0  0  0  0
    8.7290    0.1400   21.3020 C   0  0  0  0  0  0  0  0  0  0  0  0
    9.4400   -0.5240   22.2640 N   0  0  0  0  0  0  0  0  0  0  0  0
   10.8250   -0.3350   22.4710 C   0  0  0  0  0  0  0  0  0  0  0  0
   11.7210   -1.3800   22.2040 C   0  0  0  0  0  0  0  0  0  0  0  0
   13.1070   -1.1510   22.2640 C   0  0  0  0  0  0  0  0  0  0  0  0
   13.5940    0.1140   22.6360 C   0  0  0  0  0  0  0  0  0  0  0  0
   12.6980    1.1500   22.9340 C   0  0  0  0  0  0  0  0  0  0  0  0
   11.3170    0.9290   22.8340 C   0  0  0  0  0  0  0  0  0  0  0  0
    7.4240   -0.2390   21.1460 N   0  0  0  0  0  0  0  0  0  0  0  0
    6.5660    0.3810   20.1940 C   0  0  0  0  0  0  0  0  0  0  0  0
    6.7610    0.1490   18.8170 C   0  0  0  0  0  0  0  0  0  0  0  0
    6.0500    0.7550   17.8450 N   0  0  0  0  0  0  0  0  0  0  0  0
    5.1610    1.6980   18.2340 C   0  0  0  0  0  0  0  0  0  0  0  0
    4.9000    2.0010   19.5820 C   0  0  0  0  0  0  0  0  0  0  0  0
    5.6070    1.3310   20.5890 C   0  0  0  0  0  0  0  0  0  0  0  0
    5.3340    1.5580   21.9630 N   0  0  0  0  0  0  0  0  0  0  0  0
    6.2670    1.9520   22.8960 C   0  0  0  0  0  0  0  0  0  0  0  0
    6.3110    1.3290   23.9450 O   0  0  0  0  0  0  0  0  0  0  0  0
    7.1720    3.0860   22.5850 C   0  0  0  0  0  0  0  0  0  0  0  0
    8.3360    3.2800   23.2830 C   0  0  0  0  0  0  0  0  0  0  0  0
    9.0710    4.7860   22.8140 S   0  0  0  0  0  0  0  0  0  0  0  0
    7.8630    5.0120   21.7570 N   0  0  0  0  0  0  0  0  0  0  0  0
    6.9300    4.1050   21.6960 N   0  0  0  0  0  0  0  0  0  0  0  0
  1  2  2  0
  2  3  1  0
  2 10  1  0
  3  4  1  0
  4  5  2  0
  4  9  1  0
  5  6  1  0
  6  7  2  0
  7  8  1  0
  8  9  2  0
 10 11  1  0
 11 12  2  0
 11 16  1  0
 12 13  1  0
 13 14  2  0
 14 15  1  0
 15 16  2  0
 16 17  1  0
 17 18  1  0
 18 19  2  0
 18 20  1  0
 20 21  2  0
 20 24  1  0
 21 22  1  0
 22 23  1  0
 23 24  2  0
M  END
