WPC0785_minimised.pdb
     RDKit          3D

 24 25  0  0  0  0  0  0  0  0999 V2000
   12.2900    6.1000   24.5660 C   0  0  0  0  0  0  0  0  0  0  0  0
   11.7720    5.2140   23.4160 C   0  0  0  0  0  0  0  0  0  0  0  0
   12.8360    4.9870   22.3540 C   0  0  0  0  0  0  0  0  0  0  0  0
   13.3010    3.8480   21.9780 N   0  0  0  0  0  0  0  0  0  0  0  0
   12.9690    2.6590   22.5750 N   0  0  0  0  0  0  0  0  0  0  0  0
   13.8990    1.6870   22.9090 C   0  0  0  0  0  0  0  0  0  0  0  0
   15.0890    1.7920   22.6960 O   0  0  0  0  0  0  0  0  0  0  0  0
   13.3630    0.4270   23.5720 C   0  0  0  0  0  0  0  0  0  0  0  0
   11.9030    0.1370   23.2770 C   0  0  0  0  0  0  0  0  0  0  0  0
   11.5700   -0.7280   22.2230 C   0  0  0  0  0  0  0  0  0  0  0  0
   10.2280   -0.9120   21.8730 C   0  0  0  0  0  0  0  0  0  0  0  0
    9.2190   -0.2290   22.5660 C   0  0  0  0  0  0  0  0  0  0  0  0
    7.8960   -0.2560   22.0880 N   0  0  0  0  0  0  0  0  0  0  0  0
    7.5470    0.0460   20.8010 C   0  0  0  0  0  0  0  0  0  0  0  0
    8.3430    0.2190   19.8970 O   0  0  0  0  0  0  0  0  0  0  0  0
    6.1980    0.1760   20.6360 N   0  0  0  0  0  0  0  0  0  0  0  0
    5.5700    0.7190   19.4910 C   0  0  0  0  0  0  0  0  0  0  0  0
    4.5920    1.7060   19.6620 C   0  0  0  0  0  0  0  0  0  0  0  0
    4.0870    2.3240   18.5130 C   0  0  0  0  0  0  0  0  0  0  0  0
    4.5800    1.9560   17.2540 C   0  0  0  0  0  0  0  0  0  0  0  0
    5.4830    0.9650   17.0760 N   0  0  0  0  0  0  0  0  0  0  0  0
    5.9770    0.3770   18.1830 C   0  0  0  0  0  0  0  0  0  0  0  0
    9.5420    0.5750   23.6670 C   0  0  0  0  0  0  0  0  0  0  0  0
   10.8850    0.7530   24.0300 C   0  0  0  0  0  0  0  0  0  0  0  0
  1  2  1  0
  2  3  1  0
  3  4  2  0
  4  5  1  0
  5  6  1  0
  6  7  2  0
  6  8  1  0
  8  9  1  0
  9 24  2  0
  9 10  1  0
 10 11  2  0
 11 12  1  0
 12 13  1  0
 12 23  2  0
 13 14  1  0
 14 15  2  0
 14 16  1  0
 16 17  1  0
 17 18  2  0
 17 22  1  0
 18 19  1  0
 19 20  2  0
 20 21  1  0
 21 22  2  0
 23 24  1  0
M  END
