WPC0432_minimised.pdb
     RDKit          3D

 23 24  0  0  0  0  0  0  0  0999 V2000
    8.5230    0.3820   20.0530 O   0  0  0  0  0  0  0  0  0  0  0  0
    7.7690   -0.0360   21.0220 C   0  0  0  0  0  0  0  0  0  0  0  0
    8.2040   -0.5330   22.2070 N   0  0  0  0  0  0  0  0  0  0  0  0
    9.6480   -0.5370   22.4960 C   0  0  0  0  0  0  0  0  0  0  0  0
   10.4610   -1.0390   21.7380 C   0  0  0  0  0  0  0  0  0  0  0  0
   11.9430   -0.7830   21.9020 C   0  0  0  0  0  0  0  0  0  0  0  0
   12.2960   -0.1870   23.0910 C   0  0  0  0  0  0  0  0  0  0  0  0
   13.9450    0.3770   23.2810 S   0  0  0  0  0  0  0  0  0  0  0  0
   13.9640    2.0110   22.5310 C   0  0  0  0  0  0  0  0  0  0  0  0
   12.7020    2.8270   22.8020 C   0  0  0  0  0  0  0  0  0  0  0  0
   12.8790    4.6480   22.5120 P   0  0  0  0  0  0  0  0  0  0  0  0
   13.9450    5.3900   22.7860 O   0  0  0  0  0  0  0  0  0  0  0  0
   11.4370    5.2480   22.5750 O   0  0  0  0  0  0  0  0  0  0  0  0
   13.4600    5.0260   23.5490 O   0  0  0  0  0  0  0  0  0  0  0  0
   11.3310    0.2300   24.0050 C   0  0  0  0  0  0  0  0  0  0  0  0
   10.0040    0.0390   23.8850 C   0  0  0  0  0  0  0  0  0  0  0  0
    6.4210    0.0690   20.8570 N   0  0  0  0  0  0  0  0  0  0  0  0
    5.7800    0.5750   19.7130 C   0  0  0  0  0  0  0  0  0  0  0  0
    4.6880    1.6440   19.9060 C   0  0  0  0  0  0  0  0  0  0  0  0
    4.1970    2.1600   18.7360 C   0  0  0  0  0  0  0  0  0  0  0  0
    4.7180    1.7810   17.4670 C   0  0  0  0  0  0  0  0  0  0  0  0
    5.6460    0.8310   17.3130 N   0  0  0  0  0  0  0  0  0  0  0  0
    6.1020    0.2670   18.5290 C   0  0  0  0  0  0  0  0  0  0  0  0
  1  2  2  0
  2  3  1  0
  2 17  1  0
  3  4  1  0
  4  5  2  0
  4 16  1  0
  5  6  1  0
  6  7  2  0
  7  8  1  0
  7 15  1  0
  8  9  1  0
  9 10  1  0
 10 11  1  0
 11 12  2  0
 11 13  1  0
 11 14  1  0
 15 16  2  0
 17 18  1  0
 18 19  2  0
 18 23  1  0
 19 20  1  0
 20 21  2  0
 21 22  1  0
 22 23  2  0
M  END
