WPC0667_minimised.pdb
     RDKit          3D

 24 25  0  0  0  0  0  0  0  0999 V2000
   11.7570    5.8600   24.1890 C   0  0  0  0  0  0  0  0  0  0  0  0
   11.6710    5.1990   23.0300 C   0  0  0  0  0  0  0  0  0  0  0  0
   12.8650    4.8350   22.1670 C   0  0  0  0  0  0  0  0  0  0  0  0
   13.7460    4.0150   22.9450 O   0  0  0  0  0  0  0  0  0  0  0  0
   13.1760    2.7390   23.1710 N   0  0  0  0  0  0  0  0  0  0  0  0
   13.9500    1.6070   23.0350 C   0  0  0  0  0  0  0  0  0  0  0  0
   15.0400    1.5980   22.5060 O   0  0  0  0  0  0  0  0  0  0  0  0
   13.3780    0.3420   23.6490 C   0  0  0  0  0  0  0  0  0  0  0  0
   11.9170    0.1000   23.3180 C   0  0  0  0  0  0  0  0  0  0  0  0
   11.5830   -0.7070   22.2190 C   0  0  0  0  0  0  0  0  0  0  0  0
   10.2420   -0.8640   21.8530 C   0  0  0  0  0  0  0  0  0  0  0  0
    9.2320   -0.2080   22.5720 C   0  0  0  0  0  0  0  0  0  0  0  0
    7.9090   -0.2100   22.0930 N   0  0  0  0  0  0  0  0  0  0  0  0
    7.5600    0.1060   20.8090 C   0  0  0  0  0  0  0  0  0  0  0  0
    8.3520    0.2780   19.9020 O   0  0  0  0  0  0  0  0  0  0  0  0
    6.2110    0.2470   20.6480 N   0  0  0  0  0  0  0  0  0  0  0  0
    5.5810    0.7750   19.4990 C   0  0  0  0  0  0  0  0  0  0  0  0
    4.6030    1.7620   19.6610 C   0  0  0  0  0  0  0  0  0  0  0  0
    4.0940    2.3660   18.5060 C   0  0  0  0  0  0  0  0  0  0  0  0
    4.5810    1.9810   17.2490 C   0  0  0  0  0  0  0  0  0  0  0  0
    5.4840    0.9870   17.0800 N   0  0  0  0  0  0  0  0  0  0  0  0
    5.9830    0.4140   18.1930 C   0  0  0  0  0  0  0  0  0  0  0  0
    9.5550    0.5350   23.7150 C   0  0  0  0  0  0  0  0  0  0  0  0
   10.8970    0.6820   24.0950 C   0  0  0  0  0  0  0  0  0  0  0  0
  1  2  2  0
  2  3  1  0
  3  4  1  0
  4  5  1  0
  5  6  1  0
  6  7  2  0
  6  8  1  0
  8  9  1  0
  9 24  2  0
  9 10  1  0
 10 11  2  0
 11 12  1  0
 12 13  1  0
 12 23  2  0
 13 14  1  0
 14 15  2  0
 14 16  1  0
 16 17  1  0
 17 18  2  0
 17 22  1  0
 18 19  1  0
 19 20  2  0
 20 21  1  0
 21 22  2  0
 23 24  1  0
M  END
