WPC0462_minimised.pdb
     RDKit          3D

 23 24  0  0  1  0  0  0  0  0999 V2000
    8.7370    0.1680   20.0230 O   0  0  0  0  0  0  0  0  0  0  0  0
    8.0210   -0.0860   20.9700 C   0  0  0  0  0  0  0  0  0  0  0  0
    8.4830   -0.3690   22.2270 N   0  0  0  0  0  0  0  0  0  0  0  0
    9.8200   -0.1830   22.6380 C   0  0  0  0  0  0  0  0  0  0  0  0
   10.8810   -0.7850   21.9420 C   0  0  0  0  0  0  0  0  0  0  0  0
   12.2100   -0.4650   22.2640 C   0  0  0  0  0  0  0  0  0  0  0  0
   12.4840    0.4790   23.2670 C   0  0  0  0  0  0  0  0  0  0  0  0
   13.9150    0.9160   23.5500 C   0  0  0  0  0  0  0  0  0  0  0  0
   14.5550    1.8040   22.4540 C   0  0  0  0  0  0  0  0  0  0  0  0
   13.7270    3.0310   21.9880 C   0  0  2  0  0  0  0  0  0  0  0  0
   14.4880    3.7680   21.0370 O   0  0  0  0  0  0  0  0  0  0  0  0
   13.3220    3.9620   23.1420 C   0  0  0  0  0  0  0  0  0  0  0  0
   12.6310    5.2450   22.6700 C   0  0  0  0  0  0  0  0  0  0  0  0
   11.8910    5.8050   23.7550 O   0  0  0  0  0  0  0  0  0  0  0  0
   11.4190    1.0120   24.0170 C   0  0  0  0  0  0  0  0  0  0  0  0
   10.0920    0.6870   23.7010 C   0  0  0  0  0  0  0  0  0  0  0  0
    6.6570   -0.0640   20.8730 N   0  0  0  0  0  0  0  0  0  0  0  0
    5.9490    0.4510   19.7580 C   0  0  0  0  0  0  0  0  0  0  0  0
    4.9920    1.4510   19.9670 C   0  0  0  0  0  0  0  0  0  0  0  0
    4.4150    2.0470   18.8380 C   0  0  0  0  0  0  0  0  0  0  0  0
    4.8120    1.6350   17.5570 C   0  0  0  0  0  0  0  0  0  0  0  0
    5.6970    0.6350   17.3460 N   0  0  0  0  0  0  0  0  0  0  0  0
    6.2680    0.0770   18.4330 C   0  0  0  0  0  0  0  0  0  0  0  0
  1  2  2  0
  2  3  1  0
  2 17  1  0
  3  4  1  0
  4  5  2  0
  4 16  1  0
  5  6  1  0
  6  7  2  0
  7  8  1  0
  7 15  1  0
  8  9  1  0
  9 10  1  0
 10 12  1  0
 10 11  1  6
 12 13  1  0
 13 14  1  0
 15 16  2  0
 17 18  1  0
 18 19  2  0
 18 23  1  0
 19 20  1  0
 20 21  2  0
 21 22  1  0
 22 23  2  0
M  END
