WPC0643_minimised.pdb
     RDKit          3D

 23 24  0  0  0  0  0  0  0  0999 V2000
   12.2800    6.0540   24.2580 C   0  0  0  0  0  0  0  0  0  0  0  0
   12.1360    4.9350   23.1990 C   0  0  0  0  0  0  0  0  0  0  0  0
   13.4220    4.1590   22.9180 C   0  0  0  0  0  0  0  0  0  0  0  0
   14.5150    4.4880   23.3350 O   0  0  0  0  0  0  0  0  0  0  0  0
   13.2290    2.9870   22.2300 N   0  0  0  0  0  0  0  0  0  0  0  0
   14.1930    1.8740   22.2080 C   0  0  0  0  0  0  0  0  0  0  0  0
   13.7880    0.7350   23.1630 C   0  0  0  0  0  0  0  0  0  0  0  0
   12.3420    0.3190   22.9760 C   0  0  0  0  0  0  0  0  0  0  0  0
   11.9990   -0.6240   21.9940 C   0  0  0  0  0  0  0  0  0  0  0  0
   10.6490   -0.9160   21.7560 C   0  0  0  0  0  0  0  0  0  0  0  0
    9.6440   -0.2570   22.4790 C   0  0  0  0  0  0  0  0  0  0  0  0
    8.2980   -0.3760   22.0800 N   0  0  0  0  0  0  0  0  0  0  0  0
    7.8600   -0.0510   20.8260 C   0  0  0  0  0  0  0  0  0  0  0  0
    8.6010    0.2200   19.8990 O   0  0  0  0  0  0  0  0  0  0  0  0
    6.4980   -0.0130   20.7130 N   0  0  0  0  0  0  0  0  0  0  0  0
    5.8110    0.5290   19.6010 C   0  0  0  0  0  0  0  0  0  0  0  0
    4.8320    1.5060   19.8190 C   0  0  0  0  0  0  0  0  0  0  0  0
    4.2900    2.1440   18.6970 C   0  0  0  0  0  0  0  0  0  0  0  0
    4.7490    1.8050   17.4170 C   0  0  0  0  0  0  0  0  0  0  0  0
    5.6490    0.8210   17.1930 N   0  0  0  0  0  0  0  0  0  0  0  0
    6.1770    0.2130   18.2750 C   0  0  0  0  0  0  0  0  0  0  0  0
    9.9850    0.6330   23.5050 C   0  0  0  0  0  0  0  0  0  0  0  0
   11.3350    0.9160   23.7560 C   0  0  0  0  0  0  0  0  0  0  0  0
  1  2  1  0
  2  3  1  0
  3  4  2  0
  3  5  1  0
  5  6  1  0
  6  7  1  0
  7  8  1  0
  8 23  2  0
  8  9  1  0
  9 10  2  0
 10 11  1  0
 11 12  1  0
 11 22  2  0
 12 13  1  0
 13 14  2  0
 13 15  1  0
 15 16  1  0
 16 17  2  0
 16 21  1  0
 17 18  1  0
 18 19  2  0
 19 20  1  0
 20 21  2  0
 22 23  1  0
M  END
