WPC0791_minimised.pdb
     RDKit          3D

 19 20  0  0  0  0  0  0  0  0999 V2000
    8.4020    0.3470   19.8610 O   0  0  0  0  0  0  0  0  0  0  0  0
    7.6860    0.2450   20.8380 C   0  0  0  0  0  0  0  0  0  0  0  0
    8.1680    0.0870   22.1060 N   0  0  0  0  0  0  0  0  0  0  0  0
    9.5420    0.1300   22.4040 C   0  0  0  0  0  0  0  0  0  0  0  0
   10.3890   -0.8380   21.8500 C   0  0  0  0  0  0  0  0  0  0  0  0
   11.7760   -0.7060   21.9760 C   0  0  0  0  0  0  0  0  0  0  0  0
   12.3230    0.3920   22.6640 C   0  0  0  0  0  0  0  0  0  0  0  0
   13.8300    0.5620   22.7260 C   0  0  0  0  0  0  0  0  0  0  0  0
   14.3750   -0.2100   23.6860 F   0  0  0  0  0  0  0  0  0  0  0  0
   14.3910    0.1810   21.5620 F   0  0  0  0  0  0  0  0  0  0  0  0
   11.4680    1.3440   23.2490 C   0  0  0  0  0  0  0  0  0  0  0  0
   10.0760    1.2120   23.1180 C   0  0  0  0  0  0  0  0  0  0  0  0
    6.3240    0.3170   20.7610 N   0  0  0  0  0  0  0  0  0  0  0  0
    5.6150    0.7750   19.6250 C   0  0  0  0  0  0  0  0  0  0  0  0
    4.6350    1.7590   19.7960 C   0  0  0  0  0  0  0  0  0  0  0  0
    4.0770    2.3260   18.6450 C   0  0  0  0  0  0  0  0  0  0  0  0
    4.5230    1.9120   17.3820 C   0  0  0  0  0  0  0  0  0  0  0  0
    5.4220    0.9160   17.2050 N   0  0  0  0  0  0  0  0  0  0  0  0
    5.9610    0.3730   18.3140 C   0  0  0  0  0  0  0  0  0  0  0  0
  1  2  2  0
  2  3  1  0
  2 13  1  0
  3  4  1  0
  4  5  2  0
  4 12  1  0
  5  6  1  0
  6  7  2  0
  7  8  1  0
  7 11  1  0
  8  9  1  0
  8 10  1  0
 11 12  2  0
 13 14  1  0
 14 15  2  0
 14 19  1  0
 15 16  1  0
 16 17  2  0
 17 18  1  0
 18 19  2  0
M  END
