WPC0065_minimised.pdb
     RDKit          3D

 24 26  0  0  1  0  0  0  0  0999 V2000
    8.8400    0.3220   19.9110 O   0  0  0  0  0  0  0  0  0  0  0  0
    8.1990   -0.0820   20.8580 C   0  0  0  0  0  0  0  0  0  0  0  0
    8.7720   -0.6000   21.9860 N   0  0  0  0  0  0  0  0  0  0  0  0
   10.1600   -0.5970   22.2370 C   0  0  0  0  0  0  0  0  0  0  0  0
   10.8310   -1.7940   22.5250 C   0  0  0  0  0  0  0  0  0  0  0  0
   12.2230   -1.7890   22.7070 C   0  0  0  0  0  0  0  0  0  0  0  0
   12.9440   -0.5860   22.6130 C   0  0  0  0  0  0  0  0  0  0  0  0
   12.2670    0.6170   22.3750 C   0  0  0  0  0  0  0  0  0  0  0  0
   10.8800    0.6090   22.1700 C   0  0  0  0  0  0  0  0  0  0  0  0
    6.8310   -0.0480   20.8570 N   0  0  0  0  0  0  0  0  0  0  0  0
    6.0850    0.5620   19.8190 C   0  0  0  0  0  0  0  0  0  0  0  0
    6.3010    0.1170   18.4950 C   0  0  0  0  0  0  0  0  0  0  0  0
    5.7300    0.6650   17.4080 N   0  0  0  0  0  0  0  0  0  0  0  0
    4.8950    1.7000   17.6240 C   0  0  0  0  0  0  0  0  0  0  0  0
    4.5780    2.1720   18.9020 C   0  0  0  0  0  0  0  0  0  0  0  0
    5.2250    1.6620   20.0480 C   0  0  0  0  0  0  0  0  0  0  0  0
    5.0230    2.3170   21.4350 C   0  0  2  0  0  0  0  0  0  0  0  0
    4.1040    3.4090   21.3570 O   0  0  0  0  0  0  0  0  0  0  0  0
    6.3160    2.7780   22.1290 C   0  0  0  0  0  0  0  0  0  0  0  0
    6.9120    4.0160   21.8190 C   0  0  0  0  0  0  0  0  0  0  0  0
    8.1510    4.3820   22.3660 C   0  0  0  0  0  0  0  0  0  0  0  0
    8.8120    3.5160   23.2450 C   0  0  0  0  0  0  0  0  0  0  0  0
    8.2010    2.3100   23.6190 C   0  0  0  0  0  0  0  0  0  0  0  0
    6.9460    1.9640   23.0920 C   0  0  0  0  0  0  0  0  0  0  0  0
  1  2  2  0
  2  3  1  0
  2 10  1  0
  3  4  1  0
  4  5  2  0
  4  9  1  0
  5  6  1  0
  6  7  2  0
  7  8  1  0
  8  9  2  0
 10 11  1  0
 11 12  2  0
 11 16  1  0
 12 13  1  0
 13 14  2  0
 14 15  1  0
 15 16  2  0
 16 17  1  0
 17 18  1  6
 17 19  1  0
 19 20  2  0
 19 24  1  0
 20 21  1  0
 21 22  2  0
 22 23  1  0
 23 24  2  0
M  END
