WPC0157_minimised.pdb
     RDKit          3D

 23 25  0  0  0  0  0  0  0  0999 V2000
    9.1420    0.4610   20.3490 O   0  0  0  0  0  0  0  0  0  0  0  0
    8.5360   -0.0540   21.2640 C   0  0  0  0  0  0  0  0  0  0  0  0
    9.1550   -0.5480   22.3860 N   0  0  0  0  0  0  0  0  0  0  0  0
   10.5480   -0.4400   22.6070 C   0  0  0  0  0  0  0  0  0  0  0  0
   11.4450   -1.0210   21.6980 C   0  0  0  0  0  0  0  0  0  0  0  0
   12.8220   -0.7620   21.7820 C   0  0  0  0  0  0  0  0  0  0  0  0
   13.3050    0.0980   22.7780 C   0  0  0  0  0  0  0  0  0  0  0  0
   12.4150    0.6440   23.7160 C   0  0  0  0  0  0  0  0  0  0  0  0
   11.0420    0.3560   23.6500 C   0  0  0  0  0  0  0  0  0  0  0  0
    7.1750   -0.1770   21.2180 N   0  0  0  0  0  0  0  0  0  0  0  0
    6.3990    0.3850   20.1700 C   0  0  0  0  0  0  0  0  0  0  0  0
    6.6580    0.0320   18.8260 C   0  0  0  0  0  0  0  0  0  0  0  0
    6.0480    0.6010   17.7660 N   0  0  0  0  0  0  0  0  0  0  0  0
    5.1870    1.6100   18.0250 C   0  0  0  0  0  0  0  0  0  0  0  0
    4.8620    2.0280   19.3270 C   0  0  0  0  0  0  0  0  0  0  0  0
    5.4620    1.4000   20.4300 C   0  0  0  0  0  0  0  0  0  0  0  0
    5.0970    1.9610   22.0890 S   0  0  0  0  0  0  0  0  0  0  0  0
    6.5640    2.9230   22.3990 C   0  0  0  0  0  0  0  0  0  0  0  0
    7.5820    2.4290   23.2310 C   0  0  0  0  0  0  0  0  0  0  0  0
    8.7720    3.1600   23.3930 C   0  0  0  0  0  0  0  0  0  0  0  0
    8.9350    4.3910   22.7460 C   0  0  0  0  0  0  0  0  0  0  0  0
    7.9120    4.8910   21.9290 C   0  0  0  0  0  0  0  0  0  0  0  0
    6.7220    4.1650   21.7690 C   0  0  0  0  0  0  0  0  0  0  0  0
  1  2  2  0
  2  3  1  0
  2 10  1  0
  3  4  1  0
  4  5  2  0
  4  9  1  0
  5  6  1  0
  6  7  2  0
  7  8  1  0
  8  9  2  0
 10 11  1  0
 11 12  2  0
 11 16  1  0
 12 13  1  0
 13 14  2  0
 14 15  1  0
 15 16  2  0
 16 17  1  0
 17 18  1  0
 18 19  2  0
 18 23  1  0
 19 20  1  0
 20 21  2  0
 21 22  1  0
 22 23  2  0
M  END
