WPC0676_minimised.pdb
     RDKit          3D

 19 20  0  0  0  0  0  0  0  0999 V2000
   14.1610    4.2870   22.6420 N   0  0  0  0  0  0  0  0  0  0  0  0
   14.2840    3.1410   22.5710 C   0  0  0  0  0  0  0  0  0  0  0  0
   14.4600    1.4570   22.5920 S   0  0  0  0  0  0  0  0  0  0  0  0
   12.7570    0.9250   22.6130 C   0  0  0  0  0  0  0  0  0  0  0  0
   12.4020   -0.2130   21.8710 C   0  0  0  0  0  0  0  0  0  0  0  0
   11.0570   -0.6010   21.7820 C   0  0  0  0  0  0  0  0  0  0  0  0
   10.0630    0.1490   22.4300 C   0  0  0  0  0  0  0  0  0  0  0  0
    8.7000   -0.1010   22.1640 N   0  0  0  0  0  0  0  0  0  0  0  0
    8.1530    0.0340   20.9160 C   0  0  0  0  0  0  0  0  0  0  0  0
    8.8180    0.1920   19.9130 O   0  0  0  0  0  0  0  0  0  0  0  0
    6.7850    0.0370   20.8870 N   0  0  0  0  0  0  0  0  0  0  0  0
    6.0240    0.4910   19.7800 C   0  0  0  0  0  0  0  0  0  0  0  0
    5.0560    1.4800   19.9890 C   0  0  0  0  0  0  0  0  0  0  0  0
    4.4410    2.0400   18.8630 C   0  0  0  0  0  0  0  0  0  0  0  0
    4.8240    1.6190   17.5820 C   0  0  0  0  0  0  0  0  0  0  0  0
    5.7120    0.6220   17.3700 N   0  0  0  0  0  0  0  0  0  0  0  0
    6.3080    0.0870   18.4560 C   0  0  0  0  0  0  0  0  0  0  0  0
   10.4210    1.2460   23.2260 C   0  0  0  0  0  0  0  0  0  0  0  0
   11.7660    1.6340   23.3210 C   0  0  0  0  0  0  0  0  0  0  0  0
  1  2  3  0
  2  3  1  0
  3  4  1  0
  4 19  2  0
  4  5  1  0
  5  6  2  0
  6  7  1  0
  7  8  1  0
  7 18  2  0
  8  9  1  0
  9 10  2  0
  9 11  1  0
 11 12  1  0
 12 13  2  0
 12 17  1  0
 13 14  1  0
 14 15  2  0
 15 16  1  0
 16 17  2  0
 18 19  1  0
M  END
