WPC0835_minimised.pdb
     RDKit          3D

 19 20  0  0  0  0  0  0  0  0999 V2000
   13.8840    0.5460   23.2210 C   0  0  0  0  0  0  0  0  0  0  0  0
   13.1950   -0.6640   23.8760 C   0  0  0  0  0  0  0  0  0  0  0  0
   13.9190   -1.9680   23.4860 C   0  0  0  0  0  0  0  0  0  0  0  0
   11.7250   -0.6770   23.4820 C   0  0  0  0  0  0  0  0  0  0  0  0
   11.3380   -1.1660   22.2230 C   0  0  0  0  0  0  0  0  0  0  0  0
   10.0040   -1.0770   21.8140 C   0  0  0  0  0  0  0  0  0  0  0  0
    9.0510   -0.4590   22.6340 C   0  0  0  0  0  0  0  0  0  0  0  0
    7.7490   -0.2250   22.1430 N   0  0  0  0  0  0  0  0  0  0  0  0
    7.4490    0.2150   20.8810 C   0  0  0  0  0  0  0  0  0  0  0  0
    8.2660    0.4230   20.0030 O   0  0  0  0  0  0  0  0  0  0  0  0
    6.1090    0.3930   20.6910 N   0  0  0  0  0  0  0  0  0  0  0  0
    5.5080    0.9070   19.5190 C   0  0  0  0  0  0  0  0  0  0  0  0
    4.5120    1.8820   19.6380 C   0  0  0  0  0  0  0  0  0  0  0  0
    4.0290    2.4600   18.4590 C   0  0  0  0  0  0  0  0  0  0  0  0
    4.5610    2.0660   17.2240 C   0  0  0  0  0  0  0  0  0  0  0  0
    5.4790    1.0810   17.0940 N   0  0  0  0  0  0  0  0  0  0  0  0
    5.9490    0.5300   18.2300 C   0  0  0  0  0  0  0  0  0  0  0  0
    9.4170   -0.0120   23.9120 C   0  0  0  0  0  0  0  0  0  0  0  0
   10.7500   -0.1290   24.3390 C   0  0  0  0  0  0  0  0  0  0  0  0
  1  2  1  0
  2  3  1  0
  2  4  1  0
  4 19  2  0
  4  5  1  0
  5  6  2  0
  6  7  1  0
  7  8  1  0
  7 18  2  0
  8  9  1  0
  9 10  2  0
  9 11  1  0
 11 12  1  0
 12 13  2  0
 12 17  1  0
 13 14  1  0
 14 15  2  0
 15 16  1  0
 16 17  2  0
 18 19  1  0
M  END
