WPC0943_minimised.pdb
     RDKit          3D

 23 24  0  0  0  0  0  0  0  0999 V2000
   10.1190    6.3070   23.6700 N   0  0  0  0  0  0  0  0  0  0  0  0
   10.5000    5.1190   23.5110 C   0  0  0  0  0  0  0  0  0  0  0  0
    9.6180    4.2720   22.9400 N   0  0  0  0  0  0  0  0  0  0  0  0
   11.9650    4.3160   23.9620 S   0  0  0  0  0  0  0  0  0  0  0  0
   12.4640    3.4530   22.4040 C   0  0  0  0  0  0  0  0  0  0  0  0
   13.6550    2.4870   22.6210 C   0  0  0  0  0  0  0  0  0  0  0  0
   13.3520    1.2470   23.4990 C   0  0  0  0  0  0  0  0  0  0  0  0
   12.0060    0.6240   23.2080 C   0  0  0  0  0  0  0  0  0  0  0  0
   11.8420   -0.2170   22.0980 C   0  0  0  0  0  0  0  0  0  0  0  0
   10.5600   -0.6630   21.7560 C   0  0  0  0  0  0  0  0  0  0  0  0
    9.4440   -0.2500   22.5000 C   0  0  0  0  0  0  0  0  0  0  0  0
    8.1430   -0.4720   22.0090 N   0  0  0  0  0  0  0  0  0  0  0  0
    7.7420   -0.1100   20.7510 C   0  0  0  0  0  0  0  0  0  0  0  0
    8.5000    0.2320   19.8620 O   0  0  0  0  0  0  0  0  0  0  0  0
    6.3840   -0.1080   20.5980 N   0  0  0  0  0  0  0  0  0  0  0  0
    5.7180    0.4880   19.5030 C   0  0  0  0  0  0  0  0  0  0  0  0
    4.7500    1.4700   19.7450 C   0  0  0  0  0  0  0  0  0  0  0  0
    4.2310    2.1560   18.6400 C   0  0  0  0  0  0  0  0  0  0  0  0
    4.7020    1.8560   17.3540 C   0  0  0  0  0  0  0  0  0  0  0  0
    5.6010    0.8760   17.1070 N   0  0  0  0  0  0  0  0  0  0  0  0
    6.1060    0.2220   18.1720 C   0  0  0  0  0  0  0  0  0  0  0  0
    9.6170    0.5200   23.6580 C   0  0  0  0  0  0  0  0  0  0  0  0
   10.9010    0.9480   24.0190 C   0  0  0  0  0  0  0  0  0  0  0  0
  1  2  2  0
  2  3  1  0
  2  4  1  0
  4  5  1  0
  5  6  1  0
  6  7  1  0
  7  8  1  0
  8 23  2  0
  8  9  1  0
  9 10  2  0
 10 11  1  0
 11 12  1  0
 11 22  2  0
 12 13  1  0
 13 14  2  0
 13 15  1  0
 15 16  1  0
 16 17  2  0
 16 21  1  0
 17 18  1  0
 18 19  2  0
 19 20  1  0
 20 21  2  0
 22 23  1  0
M  END
