WPC0188_minimised.pdb
     RDKit          3D

 24 26  0  0  0  0  0  0  0  0999 V2000
    9.1510    0.4610   20.3500 O   0  0  0  0  0  0  0  0  0  0  0  0
    8.5540   -0.0500   21.2720 C   0  0  0  0  0  0  0  0  0  0  0  0
    9.1800   -0.5440   22.3890 N   0  0  0  0  0  0  0  0  0  0  0  0
   10.5780   -0.4450   22.5870 C   0  0  0  0  0  0  0  0  0  0  0  0
   11.4530   -1.0940   21.7040 C   0  0  0  0  0  0  0  0  0  0  0  0
   12.8350   -0.8470   21.7540 C   0  0  0  0  0  0  0  0  0  0  0  0
   13.3420    0.0660   22.6890 C   0  0  0  0  0  0  0  0  0  0  0  0
   12.4720    0.6850   23.5990 C   0  0  0  0  0  0  0  0  0  0  0  0
   11.0950    0.4110   23.5680 C   0  0  0  0  0  0  0  0  0  0  0  0
    7.1920   -0.1650   21.2370 N   0  0  0  0  0  0  0  0  0  0  0  0
    6.4140    0.3950   20.1910 C   0  0  0  0  0  0  0  0  0  0  0  0
    6.6360    0.0090   18.8500 C   0  0  0  0  0  0  0  0  0  0  0  0
    6.0130    0.5670   17.7900 N   0  0  0  0  0  0  0  0  0  0  0  0
    5.1680    1.5910   18.0470 C   0  0  0  0  0  0  0  0  0  0  0  0
    4.8790    2.0410   19.3470 C   0  0  0  0  0  0  0  0  0  0  0  0
    5.5060    1.4360   20.4470 C   0  0  0  0  0  0  0  0  0  0  0  0
    5.2060    2.0470   22.1000 S   0  0  0  0  0  0  0  0  0  0  0  0
    6.6960    2.9870   22.3800 C   0  0  0  0  0  0  0  0  0  0  0  0
    7.7010    2.4970   23.2320 C   0  0  0  0  0  0  0  0  0  0  0  0
    8.8570    3.2630   23.4710 C   0  0  0  0  0  0  0  0  0  0  0  0
    8.9990    4.5260   22.8850 C   0  0  0  0  0  0  0  0  0  0  0  0
   10.3820    5.5230   23.2850 Cl  0  0  0  0  0  0  0  0  0  0  0  0
    8.0170    4.9980   22.0040 C   0  0  0  0  0  0  0  0  0  0  0  0
    6.8590    4.2380   21.7660 C   0  0  0  0  0  0  0  0  0  0  0  0
  1  2  2  0
  2  3  1  0
  2 10  1  0
  3  4  1  0
  4  5  2  0
  4  9  1  0
  5  6  1  0
  6  7  2  0
  7  8  1  0
  8  9  2  0
 10 11  1  0
 11 12  2  0
 11 16  1  0
 12 13  1  0
 13 14  2  0
 14 15  1  0
 15 16  2  0
 16 17  1  0
 17 18  1  0
 18 19  2  0
 18 24  1  0
 19 20  1  0
 20 21  2  0
 21 22  1  0
 21 23  1  0
 23 24  2  0
M  END
