WPC0840_minimised.pdb
     RDKit          3D

 24 26  0  0  1  0  0  0  0  0999 V2000
   14.1390    6.2200   22.1410 N   0  0  0  0  0  0  0  0  0  0  0  0
   13.2660    5.2240   22.3560 C   0  0  1  0  0  0  0  0  0  0  0  0
   13.2170    4.2150   21.5960 N   0  0  0  0  0  0  0  0  0  0  0  0
   12.6030    3.1130   22.3470 C   0  0  1  0  0  0  0  0  0  0  0  0
   13.7220    2.0660   22.6030 C   0  0  0  0  0  0  0  0  0  0  0  0
   13.3480    0.8900   23.5320 C   0  0  0  0  0  0  0  0  0  0  0  0
   11.9790    0.3200   23.2370 C   0  0  0  0  0  0  0  0  0  0  0  0
   11.7900   -0.4880   22.1070 C   0  0  0  0  0  0  0  0  0  0  0  0
   10.4970   -0.8920   21.7560 C   0  0  0  0  0  0  0  0  0  0  0  0
    9.3920   -0.4660   22.5070 C   0  0  0  0  0  0  0  0  0  0  0  0
    8.0850   -0.6400   22.0110 N   0  0  0  0  0  0  0  0  0  0  0  0
    7.6980   -0.2790   20.7480 C   0  0  0  0  0  0  0  0  0  0  0  0
    8.4640   -0.0040   19.8430 O   0  0  0  0  0  0  0  0  0  0  0  0
    6.3410   -0.1950   20.6110 N   0  0  0  0  0  0  0  0  0  0  0  0
    5.6920    0.4240   19.5180 C   0  0  0  0  0  0  0  0  0  0  0  0
    4.7420    1.4220   19.7690 C   0  0  0  0  0  0  0  0  0  0  0  0
    4.2250    2.1170   18.6680 C   0  0  0  0  0  0  0  0  0  0  0  0
    4.6830    1.8120   17.3780 C   0  0  0  0  0  0  0  0  0  0  0  0
    5.5650    0.8190   17.1250 N   0  0  0  0  0  0  0  0  0  0  0  0
    6.0670    0.1560   18.1840 C   0  0  0  0  0  0  0  0  0  0  0  0
    9.5870    0.2680   23.6830 C   0  0  0  0  0  0  0  0  0  0  0  0
   10.8820    0.6520   24.0560 C   0  0  0  0  0  0  0  0  0  0  0  0
   12.0810    3.8420   23.6030 C   0  0  0  0  0  0  0  0  0  0  0  0
   12.9050    5.0160   23.6340 O   0  0  0  0  0  0  0  0  0  0  0  0
  2  1  1  1
  2  3  1  0
  2 24  1  0
  3  4  1  0
  4 23  1  0
  4  5  1  1
  5  6  1  0
  6  7  1  0
  7 22  1  0
  7  8  2  0
  8  9  1  0
  9 10  2  0
 10 11  1  0
 10 21  1  0
 11 12  1  0
 12 13  2  0
 12 14  1  0
 14 15  1  0
 15 16  2  0
 15 20  1  0
 16 17  1  0
 17 18  2  0
 18 19  1  0
 19 20  2  0
 21 22  2  0
 23 24  1  0
M  END
