WPC0184_minimised.pdb
     RDKit          3D

 23 24  0  0  0  0  0  0  0  0999 V2000
    6.2700    0.5190   26.2750 C   0  0  0  0  0  0  0  0  0  0  0  0
    6.2350   -0.0830   24.8770 C   0  0  0  0  0  0  0  0  0  0  0  0
    7.2560   -0.3210   24.2520 O   0  0  0  0  0  0  0  0  0  0  0  0
    4.8540   -0.3900   24.2850 C   0  0  0  0  0  0  0  0  0  0  0  0
    4.8970   -0.3400   22.8340 O   0  0  0  0  0  0  0  0  0  0  0  0
    4.8700    0.8800   22.2070 C   0  0  0  0  0  0  0  0  0  0  0  0
    4.3640    1.8580   22.7260 O   0  0  0  0  0  0  0  0  0  0  0  0
    5.1550    0.7520   20.7370 C   0  0  0  0  0  0  0  0  0  0  0  0
    4.4090    1.4560   19.7690 C   0  0  0  0  0  0  0  0  0  0  0  0
    4.6960    1.2890   18.4020 C   0  0  0  0  0  0  0  0  0  0  0  0
    5.6500    0.4450   17.9510 N   0  0  0  0  0  0  0  0  0  0  0  0
    6.4220   -0.1630   18.8770 C   0  0  0  0  0  0  0  0  0  0  0  0
    6.2360   -0.0230   20.2740 C   0  0  0  0  0  0  0  0  0  0  0  0
    7.2100   -0.4910   21.2050 N   0  0  0  0  0  0  0  0  0  0  0  0
    8.5530   -0.2580   21.0740 C   0  0  0  0  0  0  0  0  0  0  0  0
    9.0310    0.1220   20.0280 O   0  0  0  0  0  0  0  0  0  0  0  0
    9.2810   -0.4370   22.2180 N   0  0  0  0  0  0  0  0  0  0  0  0
   10.6570   -0.1520   22.3500 C   0  0  0  0  0  0  0  0  0  0  0  0
   11.6140   -1.0340   21.8260 C   0  0  0  0  0  0  0  0  0  0  0  0
   12.9830   -0.7280   21.9150 C   0  0  0  0  0  0  0  0  0  0  0  0
   13.3920    0.4610   22.5390 C   0  0  0  0  0  0  0  0  0  0  0  0
   12.4340    1.3450   23.0610 C   0  0  0  0  0  0  0  0  0  0  0  0
   11.0670    1.0360   22.9710 C   0  0  0  0  0  0  0  0  0  0  0  0
  1  2  1  0
  2  3  2  0
  2  4  1  0
  4  5  1  0
  5  6  1  0
  6  7  2  0
  6  8  1  0
  8  9  2  0
  8 13  1  0
  9 10  1  0
 10 11  2  0
 11 12  1  0
 12 13  2  0
 13 14  1  0
 14 15  1  0
 15 16  2  0
 15 17  1  0
 17 18  1  0
 18 19  2  0
 18 23  1  0
 19 20  1  0
 20 21  2  0
 21 22  1  0
 22 23  2  0
M  END
