WPC0074_minimised.pdb
     RDKit          3D

 22 23  0  0  0  0  0  0  0  0999 V2000
    1.1300    2.9070   22.9600 C   0  0  0  0  0  0  0  0  0  0  0  0
    2.5080    2.5450   23.1550 O   0  0  0  0  0  0  0  0  0  0  0  0
    3.1850    1.9890   22.1100 C   0  0  0  0  0  0  0  0  0  0  0  0
    2.6370    1.4350   21.1710 O   0  0  0  0  0  0  0  0  0  0  0  0
    4.6410    1.9820   22.4040 C   0  0  0  0  0  0  0  0  0  0  0  0
    5.6950    1.5790   21.6510 C   0  0  0  0  0  0  0  0  0  0  0  0
    5.7370    1.0730   20.2590 C   0  0  0  0  0  0  0  0  0  0  0  0
    4.9430    1.6840   19.2720 C   0  0  0  0  0  0  0  0  0  0  0  0
    5.0590    1.2950   17.9330 C   0  0  0  0  0  0  0  0  0  0  0  0
    5.9110    0.3290   17.5280 N   0  0  0  0  0  0  0  0  0  0  0  0
    6.6910   -0.2430   18.4680 C   0  0  0  0  0  0  0  0  0  0  0  0
    6.6520    0.0850   19.8390 C   0  0  0  0  0  0  0  0  0  0  0  0
    7.5940   -0.5010   20.7340 N   0  0  0  0  0  0  0  0  0  0  0  0
    8.7780    0.0950   21.0890 C   0  0  0  0  0  0  0  0  0  0  0  0
    9.0480    1.2260   20.7540 O   0  0  0  0  0  0  0  0  0  0  0  0
    9.6390   -0.6950   21.8030 N   0  0  0  0  0  0  0  0  0  0  0  0
   10.9700   -0.3450   22.1310 C   0  0  0  0  0  0  0  0  0  0  0  0
   12.0070   -1.2300   21.8070 C   0  0  0  0  0  0  0  0  0  0  0  0
   13.3450   -0.8730   22.0380 C   0  0  0  0  0  0  0  0  0  0  0  0
   13.6460    0.3670   22.6240 C   0  0  0  0  0  0  0  0  0  0  0  0
   12.6080    1.2460   22.9720 C   0  0  0  0  0  0  0  0  0  0  0  0
   11.2730    0.8920   22.7230 C   0  0  0  0  0  0  0  0  0  0  0  0
  1  2  1  0
  2  3  1  0
  3  4  2  0
  3  5  1  0
  5  6  2  0
  6  7  1  0
  7  8  2  0
  7 12  1  0
  8  9  1  0
  9 10  2  0
 10 11  1  0
 11 12  2  0
 12 13  1  0
 13 14  1  0
 14 15  2  0
 14 16  1  0
 16 17  1  0
 17 18  2  0
 17 22  1  0
 18 19  1  0
 19 20  2  0
 20 21  1  0
 21 22  2  0
M  END
