WPC0403_minimised.pdb
     RDKit          3D

 20 21  0  0  1  0  0  0  0  0999 V2000
   13.1270    1.8570   22.8070 C   0  0  0  0  0  0  0  0  0  0  0  0
   13.9640    0.5590   22.8440 C   0  0  0  0  0  0  0  0  0  0  0  0
   13.4010   -0.5060   23.8140 C   0  0  2  0  0  0  0  0  0  0  0  0
   14.1470   -1.7070   23.6670 O   0  0  0  0  0  0  0  0  0  0  0  0
   11.9330   -0.7690   23.5230 C   0  0  0  0  0  0  0  0  0  0  0  0
   11.5710   -1.3840   22.3140 C   0  0  0  0  0  0  0  0  0  0  0  0
   10.2300   -1.4210   21.9200 C   0  0  0  0  0  0  0  0  0  0  0  0
    9.2440   -0.8200   22.7150 C   0  0  0  0  0  0  0  0  0  0  0  0
    7.9420   -0.6410   22.2030 N   0  0  0  0  0  0  0  0  0  0  0  0
    7.6620   -0.1510   20.9530 C   0  0  0  0  0  0  0  0  0  0  0  0
    8.4930    0.0900   20.0980 O   0  0  0  0  0  0  0  0  0  0  0  0
    6.3260    0.0560   20.7530 N   0  0  0  0  0  0  0  0  0  0  0  0
    5.7520    0.6470   19.6030 C   0  0  0  0  0  0  0  0  0  0  0  0
    4.7760    1.6370   19.7610 C   0  0  0  0  0  0  0  0  0  0  0  0
    4.3100    2.2790   18.6080 C   0  0  0  0  0  0  0  0  0  0  0  0
    4.8360    1.9300   17.3570 C   0  0  0  0  0  0  0  0  0  0  0  0
    5.7380    0.9360   17.1880 N   0  0  0  0  0  0  0  0  0  0  0  0
    6.1950    0.3260   18.3000 C   0  0  0  0  0  0  0  0  0  0  0  0
    9.5860   -0.2880   23.9670 C   0  0  0  0  0  0  0  0  0  0  0  0
   10.9300   -0.2680   24.3740 C   0  0  0  0  0  0  0  0  0  0  0  0
  1  2  1  0
  2  3  1  0
  3  4  1  6
  3  5  1  0
  5 20  2  0
  5  6  1  0
  6  7  2  0
  7  8  1  0
  8  9  1  0
  8 19  2  0
  9 10  1  0
 10 11  2  0
 10 12  1  0
 12 13  1  0
 13 14  2  0
 13 18  1  0
 14 15  1  0
 15 16  2  0
 16 17  1  0
 17 18  2  0
 19 20  1  0
M  END
