WPC0218_minimised.pdb
     RDKit          3D

 22 23  0  0  0  0  0  0  0  0999 V2000
    7.8420    3.0680   22.3440 C   0  0  0  0  0  0  0  0  0  0  0  0
    6.8120    4.0610   22.4630 O   0  0  0  0  0  0  0  0  0  0  0  0
    5.5820    3.8300   21.7300 C   0  0  0  0  0  0  0  0  0  0  0  0
    4.7850    2.6180   22.2380 C   0  0  0  0  0  0  0  0  0  0  0  0
    4.3270    2.5120   23.3630 O   0  0  0  0  0  0  0  0  0  0  0  0
    4.6040    1.5350   21.4150 N   0  0  0  0  0  0  0  0  0  0  0  0
    5.0560    1.2860   20.1030 C   0  0  0  0  0  0  0  0  0  0  0  0
    4.4830    1.9410   19.0090 C   0  0  0  0  0  0  0  0  0  0  0  0
    4.9140    1.6200   17.7150 C   0  0  0  0  0  0  0  0  0  0  0  0
    5.8430    0.6720   17.4630 N   0  0  0  0  0  0  0  0  0  0  0  0
    6.4180    0.0700   18.5240 C   0  0  0  0  0  0  0  0  0  0  0  0
    6.0590    0.3370   19.8630 C   0  0  0  0  0  0  0  0  0  0  0  0
    6.8040   -0.2120   20.9490 N   0  0  0  0  0  0  0  0  0  0  0  0
    8.1640   -0.0660   21.0470 C   0  0  0  0  0  0  0  0  0  0  0  0
    8.8110    0.3970   20.1300 O   0  0  0  0  0  0  0  0  0  0  0  0
    8.7270   -0.4180   22.2450 N   0  0  0  0  0  0  0  0  0  0  0  0
   10.0900   -0.1920   22.5450 C   0  0  0  0  0  0  0  0  0  0  0  0
   11.0870   -0.8980   21.8520 C   0  0  0  0  0  0  0  0  0  0  0  0
   12.4420   -0.5690   22.0260 C   0  0  0  0  0  0  0  0  0  0  0  0
   12.8000    0.4740   22.8950 C   0  0  0  0  0  0  0  0  0  0  0  0
   11.8050    1.1690   23.6010 C   0  0  0  0  0  0  0  0  0  0  0  0
   10.4530    0.8280   23.4370 C   0  0  0  0  0  0  0  0  0  0  0  0
  1  2  1  0
  2  3  1  0
  3  4  1  0
  4  5  2  0
  4  6  1  0
  6  7  1  0
  7  8  2  0
  7 12  1  0
  8  9  1  0
  9 10  2  0
 10 11  1  0
 11 12  2  0
 12 13  1  0
 13 14  1  0
 14 15  2  0
 14 16  1  0
 16 17  1  0
 17 18  2  0
 17 22  1  0
 18 19  1  0
 19 20  2  0
 20 21  1  0
 21 22  2  0
M  END
