WPC0471_minimised.pdb
     RDKit          3D

 20 21  0  0  1  0  0  0  0  0999 V2000
   14.6480    1.0980   22.5380 N   0  0  0  0  0  0  0  0  0  0  0  0
   13.4990    1.8230   23.0860 C   0  0  1  0  0  0  0  0  0  0  0  0
   13.5690    3.2910   22.5890 C   0  0  0  0  0  0  0  0  0  0  0  0
   12.3180    4.4880   23.2450 S   0  0  0  0  0  0  0  0  0  0  0  0
   12.1640    1.1350   22.8340 C   0  0  0  0  0  0  0  0  0  0  0  0
   12.0110    0.1290   21.8610 C   0  0  0  0  0  0  0  0  0  0  0  0
   10.7500   -0.4380   21.6320 C   0  0  0  0  0  0  0  0  0  0  0  0
    9.6320    0.0060   22.3510 C   0  0  0  0  0  0  0  0  0  0  0  0
    8.3300   -0.3610   21.9570 N   0  0  0  0  0  0  0  0  0  0  0  0
    7.8550   -0.1660   20.6880 C   0  0  0  0  0  0  0  0  0  0  0  0
    8.5630    0.0430   19.7220 O   0  0  0  0  0  0  0  0  0  0  0  0
    6.4900   -0.1390   20.6140 N   0  0  0  0  0  0  0  0  0  0  0  0
    5.7830    0.4350   19.5300 C   0  0  0  0  0  0  0  0  0  0  0  0
    4.8480    1.4440   19.7890 C   0  0  0  0  0  0  0  0  0  0  0  0
    4.3000    2.1220   18.6930 C   0  0  0  0  0  0  0  0  0  0  0  0
    4.7180    1.7940   17.3960 C   0  0  0  0  0  0  0  0  0  0  0  0
    5.5810    0.7860   17.1340 N   0  0  0  0  0  0  0  0  0  0  0  0
    6.1080    0.1340   18.1890 C   0  0  0  0  0  0  0  0  0  0  0  0
    9.7930    0.9390   23.3820 C   0  0  0  0  0  0  0  0  0  0  0  0
   11.0580    1.4870   23.6330 C   0  0  0  0  0  0  0  0  0  0  0  0
  2  1  1  6
  2  3  1  0
  2  5  1  0
  3  4  1  0
  5 20  2  0
  5  6  1  0
  6  7  2  0
  7  8  1  0
  8  9  1  0
  8 19  2  0
  9 10  1  0
 10 11  2  0
 10 12  1  0
 12 13  1  0
 13 14  2  0
 13 18  1  0
 14 15  1  0
 15 16  2  0
 16 17  1  0
 17 18  2  0
 19 20  1  0
M  END
