WPC0996_minimised.pdb
     RDKit          3D

 24 25  0  0  0  0  0  0  0  0999 V2000
   10.4180    4.3830   24.0650 C   0  0  0  0  0  0  0  0  0  0  0  0
   11.5220    5.2480   23.4120 C   0  0  0  0  0  0  0  0  0  0  0  0
   12.2250    6.1690   24.4370 C   0  0  0  0  0  0  0  0  0  0  0  0
   12.5640    4.4330   22.6370 C   0  0  0  0  0  0  0  0  0  0  0  0
   13.2280    4.9040   21.7290 O   0  0  0  0  0  0  0  0  0  0  0  0
   12.8500    3.2520   23.2590 O   0  0  0  0  0  0  0  0  0  0  0  0
   13.7910    2.3540   22.6450 C   0  0  0  0  0  0  0  0  0  0  0  0
   13.6300    0.9530   23.2730 C   0  0  0  0  0  0  0  0  0  0  0  0
   12.2340    0.3990   23.0630 C   0  0  0  0  0  0  0  0  0  0  0  0
   11.9730   -0.4770   21.9980 C   0  0  0  0  0  0  0  0  0  0  0  0
   10.6540   -0.8680   21.7320 C   0  0  0  0  0  0  0  0  0  0  0  0
    9.5940   -0.3640   22.5010 C   0  0  0  0  0  0  0  0  0  0  0  0
    8.2620   -0.5340   22.0730 N   0  0  0  0  0  0  0  0  0  0  0  0
    7.8260   -0.2020   20.8170 C   0  0  0  0  0  0  0  0  0  0  0  0
    8.5610    0.0600   19.8840 O   0  0  0  0  0  0  0  0  0  0  0  0
    6.4640   -0.1340   20.7110 N   0  0  0  0  0  0  0  0  0  0  0  0
    5.7850    0.4440   19.6120 C   0  0  0  0  0  0  0  0  0  0  0  0
    4.8310    1.4410   19.8490 C   0  0  0  0  0  0  0  0  0  0  0  0
    4.2890    2.1010   18.7390 C   0  0  0  0  0  0  0  0  0  0  0  0
    4.7240    1.7620   17.4500 C   0  0  0  0  0  0  0  0  0  0  0  0
    5.6060    0.7660   17.2080 N   0  0  0  0  0  0  0  0  0  0  0  0
    6.1340    0.1370   18.2780 C   0  0  0  0  0  0  0  0  0  0  0  0
    9.8610    0.4390   23.6160 C   0  0  0  0  0  0  0  0  0  0  0  0
   11.1820    0.8100   23.9030 C   0  0  0  0  0  0  0  0  0  0  0  0
  1  2  1  0
  2  3  1  0
  2  4  1  0
  4  5  2  0
  4  6  1  0
  6  7  1  0
  7  8  1  0
  8  9  1  0
  9 24  2  0
  9 10  1  0
 10 11  2  0
 11 12  1  0
 12 13  1  0
 12 23  2  0
 13 14  1  0
 14 15  2  0
 14 16  1  0
 16 17  1  0
 17 18  2  0
 17 22  1  0
 18 19  1  0
 19 20  2  0
 20 21  1  0
 21 22  2  0
 23 24  1  0
M  END
