WPC0539_minimised.pdb
     RDKit          3D

 23 24  0  0  0  0  0  0  0  0999 V2000
   11.5880    4.9370   23.3040 C   0  0  0  0  0  0  0  0  0  0  0  0
   12.5290    4.9060   22.0850 C   0  0  0  0  0  0  0  0  0  0  0  0
   13.0880    3.5930   21.9550 O   0  0  0  0  0  0  0  0  0  0  0  0
   14.1500    3.2590   22.7290 C   0  0  0  0  0  0  0  0  0  0  0  0
   14.7590    4.0640   23.4140 O   0  0  0  0  0  0  0  0  0  0  0  0
   14.6230    1.8370   22.4500 C   0  0  0  0  0  0  0  0  0  0  0  0
   13.9700    0.7430   23.3180 C   0  0  0  0  0  0  0  0  0  0  0  0
   12.5010    0.5260   23.0250 C   0  0  0  0  0  0  0  0  0  0  0  0
   12.1150   -0.3940   22.0370 C   0  0  0  0  0  0  0  0  0  0  0  0
   10.7550   -0.6070   21.7770 C   0  0  0  0  0  0  0  0  0  0  0  0
    9.7780    0.1070   22.4860 C   0  0  0  0  0  0  0  0  0  0  0  0
    8.4180   -0.0190   22.1350 N   0  0  0  0  0  0  0  0  0  0  0  0
    7.9320    0.1700   20.8710 C   0  0  0  0  0  0  0  0  0  0  0  0
    8.6360    0.3620   19.8990 O   0  0  0  0  0  0  0  0  0  0  0  0
    6.5670    0.1630   20.7960 N   0  0  0  0  0  0  0  0  0  0  0  0
    5.8330    0.6080   19.6710 C   0  0  0  0  0  0  0  0  0  0  0  0
    4.8340    1.5700   19.8610 C   0  0  0  0  0  0  0  0  0  0  0  0
    4.2390    2.1220   18.7210 C   0  0  0  0  0  0  0  0  0  0  0  0
    4.6670    1.7130   17.4500 C   0  0  0  0  0  0  0  0  0  0  0  0
    5.5860    0.7410   17.2550 N   0  0  0  0  0  0  0  0  0  0  0  0
    6.1660    0.2170   18.3550 C   0  0  0  0  0  0  0  0  0  0  0  0
   10.1590    1.0070   23.4910 C   0  0  0  0  0  0  0  0  0  0  0  0
   11.5200    1.2130   23.7630 C   0  0  0  0  0  0  0  0  0  0  0  0
  1  2  1  0
  2  3  1  0
  3  4  1  0
  4  5  2  0
  4  6  1  0
  6  7  1  0
  7  8  1  0
  8 23  2  0
  8  9  1  0
  9 10  2  0
 10 11  1  0
 11 12  1  0
 11 22  2  0
 12 13  1  0
 13 14  2  0
 13 15  1  0
 15 16  1  0
 16 17  2  0
 16 21  1  0
 17 18  1  0
 18 19  2  0
 19 20  1  0
 20 21  2  0
 22 23  1  0
M  END
