WPC0885_minimised.pdb
     RDKit          3D

 24 26  0  0  0  0  0  0  0  0999 V2000
   10.4510    5.5050   23.2670 C   0  0  0  0  0  0  0  0  0  0  0  0
   11.7620    4.7920   23.0900 C   0  0  0  0  0  0  0  0  0  0  0  0
   11.9020    3.4930   22.7430 C   0  0  0  0  0  0  0  0  0  0  0  0
   13.2850    3.2590   22.8800 C   0  0  0  0  0  0  0  0  0  0  0  0
   13.9290    2.0650   22.7380 N   0  0  0  0  0  0  0  0  0  0  0  0
   13.5520    0.8290   23.4540 C   0  0  0  0  0  0  0  0  0  0  0  0
   12.1350    0.3500   23.2060 C   0  0  0  0  0  0  0  0  0  0  0  0
   11.8680   -0.5490   22.1610 C   0  0  0  0  0  0  0  0  0  0  0  0
   10.5450   -0.8980   21.8640 C   0  0  0  0  0  0  0  0  0  0  0  0
    9.4880   -0.3510   22.6030 C   0  0  0  0  0  0  0  0  0  0  0  0
    8.1630   -0.4850   22.1440 N   0  0  0  0  0  0  0  0  0  0  0  0
    7.7650   -0.1460   20.8780 C   0  0  0  0  0  0  0  0  0  0  0  0
    8.5240    0.1150   19.9630 O   0  0  0  0  0  0  0  0  0  0  0  0
    6.4070   -0.0770   20.7420 N   0  0  0  0  0  0  0  0  0  0  0  0
    5.7430    0.4890   19.6280 C   0  0  0  0  0  0  0  0  0  0  0  0
    4.7870    1.4890   19.8460 C   0  0  0  0  0  0  0  0  0  0  0  0
    4.2500    2.1300   18.7230 C   0  0  0  0  0  0  0  0  0  0  0  0
    4.6840    1.7620   17.4410 C   0  0  0  0  0  0  0  0  0  0  0  0
    5.5700    0.7640   17.2200 N   0  0  0  0  0  0  0  0  0  0  0  0
    6.1010    0.1600   18.3020 C   0  0  0  0  0  0  0  0  0  0  0  0
    9.7560    0.4450   23.7240 C   0  0  0  0  0  0  0  0  0  0  0  0
   11.0810    0.7820   24.0350 C   0  0  0  0  0  0  0  0  0  0  0  0
   13.9300    4.3610   23.2270 N   0  0  0  0  0  0  0  0  0  0  0  0
   12.9480    5.3770   23.3910 O   0  0  0  0  0  0  0  0  0  0  0  0
  1  2  1  0
  2  3  2  0
  2 24  1  0
  3  4  1  0
  4 23  2  0
  4  5  1  0
  5  6  1  0
  6  7  1  0
  7 22  1  0
  7  8  2  0
  8  9  1  0
  9 10  2  0
 10 11  1  0
 10 21  1  0
 11 12  1  0
 12 13  2  0
 12 14  1  0
 14 15  1  0
 15 16  2  0
 15 20  1  0
 16 17  1  0
 17 18  2  0
 18 19  1  0
 19 20  2  0
 21 22  2  0
 23 24  1  0
M  END
