WPC0126_minimised.pdb
     RDKit          3D

 23 24  0  0  0  0  0  0  0  0999 V2000
    8.9380    0.6350   20.3140 O   0  0  0  0  0  0  0  0  0  0  0  0
    8.3910    0.0110   21.1970 C   0  0  0  0  0  0  0  0  0  0  0  0
    9.0620   -0.4270   22.3070 N   0  0  0  0  0  0  0  0  0  0  0  0
   10.4440   -0.2100   22.4990 C   0  0  0  0  0  0  0  0  0  0  0  0
   11.3740   -1.1260   21.9840 C   0  0  0  0  0  0  0  0  0  0  0  0
   12.7510   -0.8510   22.0560 C   0  0  0  0  0  0  0  0  0  0  0  0
   13.1970    0.3390   22.6540 C   0  0  0  0  0  0  0  0  0  0  0  0
   12.2660    1.2550   23.1710 C   0  0  0  0  0  0  0  0  0  0  0  0
   10.8910    0.9810   23.0930 C   0  0  0  0  0  0  0  0  0  0  0  0
    7.0570   -0.3030   21.1220 N   0  0  0  0  0  0  0  0  0  0  0  0
    6.2330    0.1330   20.0400 C   0  0  0  0  0  0  0  0  0  0  0  0
    6.6340   -0.0710   18.7000 C   0  0  0  0  0  0  0  0  0  0  0  0
    5.9750    0.4260   17.6330 N   0  0  0  0  0  0  0  0  0  0  0  0
    4.9130    1.2190   17.8810 C   0  0  0  0  0  0  0  0  0  0  0  0
    4.4200    1.4570   19.1720 C   0  0  0  0  0  0  0  0  0  0  0  0
    5.0810    0.9010   20.2780 C   0  0  0  0  0  0  0  0  0  0  0  0
    4.6170    1.0940   21.6020 N   0  0  0  0  0  0  0  0  0  0  0  0
    4.3190    2.2430   22.3100 C   0  0  0  0  0  0  0  0  0  0  0  0
    3.9600    2.0660   23.4680 O   0  0  0  0  0  0  0  0  0  0  0  0
    4.4280    3.6410   21.6400 C   0  0  0  0  0  0  0  0  0  0  0  0
    4.6020    4.5910   22.5720 F   0  0  0  0  0  0  0  0  0  0  0  0
    3.2940    3.9460   20.9650 F   0  0  0  0  0  0  0  0  0  0  0  0
    5.4910    3.7450   20.8180 F   0  0  0  0  0  0  0  0  0  0  0  0
  1  2  2  0
  2  3  1  0
  2 10  1  0
  3  4  1  0
  4  5  2  0
  4  9  1  0
  5  6  1  0
  6  7  2  0
  7  8  1  0
  8  9  2  0
 10 11  1  0
 11 12  2  0
 11 16  1  0
 12 13  1  0
 13 14  2  0
 14 15  1  0
 15 16  2  0
 16 17  1  0
 17 18  1  0
 18 19  2  0
 18 20  1  0
 20 22  1  0
 20 23  1  0
 20 21  1  0
M  END
