WPC0740_minimised.pdb
     RDKit          3D

 23 24  0  0  0  0  0  0  0  0999 V2000
   12.1290    5.4050   23.5720 C   0  0  0  0  0  0  0  0  0  0  0  0
   11.4120    4.0670   23.5380 C   0  0  0  0  0  0  0  0  0  0  0  0
   10.3100    3.9090   24.0190 O   0  0  0  0  0  0  0  0  0  0  0  0
   12.0740    3.0050   22.9790 N   0  0  0  0  0  0  0  0  0  0  0  0
   13.4890    2.9640   22.5980 C   0  0  0  0  0  0  0  0  0  0  0  0
   14.0080    1.5370   22.3050 C   0  0  0  0  0  0  0  0  0  0  0  0
   13.6330    0.4550   23.3440 C   0  0  0  0  0  0  0  0  0  0  0  0
   12.2060   -0.0380   23.1690 C   0  0  0  0  0  0  0  0  0  0  0  0
   11.8890   -0.8520   22.0700 C   0  0  0  0  0  0  0  0  0  0  0  0
   10.5500   -1.1420   21.7870 C   0  0  0  0  0  0  0  0  0  0  0  0
    9.5260   -0.5940   22.5700 C   0  0  0  0  0  0  0  0  0  0  0  0
    8.1960   -0.6240   22.1040 N   0  0  0  0  0  0  0  0  0  0  0  0
    7.8270   -0.2240   20.8460 C   0  0  0  0  0  0  0  0  0  0  0  0
    8.6040    0.0200   19.9430 O   0  0  0  0  0  0  0  0  0  0  0  0
    6.4760   -0.0870   20.7030 N   0  0  0  0  0  0  0  0  0  0  0  0
    5.8390    0.5120   19.5900 C   0  0  0  0  0  0  0  0  0  0  0  0
    4.8750    1.5010   19.8120 C   0  0  0  0  0  0  0  0  0  0  0  0
    4.3550    2.1650   18.6940 C   0  0  0  0  0  0  0  0  0  0  0  0
    4.8250    1.8410   17.4140 C   0  0  0  0  0  0  0  0  0  0  0  0
    5.7200    0.8540   17.1850 N   0  0  0  0  0  0  0  0  0  0  0  0
    6.2250    0.2190   18.2630 C   0  0  0  0  0  0  0  0  0  0  0  0
    9.8420    0.1210   23.7320 C   0  0  0  0  0  0  0  0  0  0  0  0
   11.1840    0.3760   24.0460 C   0  0  0  0  0  0  0  0  0  0  0  0
  1  2  1  0
  2  3  2  0
  2  4  1  0
  4  5  1  0
  5  6  1  0
  6  7  1  0
  7  8  1  0
  8 23  2  0
  8  9  1  0
  9 10  2  0
 10 11  1  0
 11 12  1  0
 11 22  2  0
 12 13  1  0
 13 14  2  0
 13 15  1  0
 15 16  1  0
 16 17  2  0
 16 21  1  0
 17 18  1  0
 18 19  2  0
 19 20  1  0
 20 21  2  0
 22 23  1  0
M  END
