WPC0123_minimised.pdb
     RDKit          3D

 24 26  0  0  0  0  0  0  0  0999 V2000
    8.8130    0.3370   19.9990 O   0  0  0  0  0  0  0  0  0  0  0  0
    8.2670   -0.2750   20.8930 C   0  0  0  0  0  0  0  0  0  0  0  0
    8.9430   -0.8700   21.9230 N   0  0  0  0  0  0  0  0  0  0  0  0
   10.3320   -0.7540   22.1510 C   0  0  0  0  0  0  0  0  0  0  0  0
   11.1010   -1.9000   22.3990 C   0  0  0  0  0  0  0  0  0  0  0  0
   12.4890   -1.7860   22.5800 C   0  0  0  0  0  0  0  0  0  0  0  0
   13.1050   -0.5240   22.5500 C   0  0  0  0  0  0  0  0  0  0  0  0
   12.3290    0.6260   22.3580 C   0  0  0  0  0  0  0  0  0  0  0  0
   10.9490    0.5090   22.1350 C   0  0  0  0  0  0  0  0  0  0  0  0
    6.9080   -0.4140   20.9320 N   0  0  0  0  0  0  0  0  0  0  0  0
    6.0630    0.2540   20.0120 C   0  0  0  0  0  0  0  0  0  0  0  0
    6.2310    0.0420   18.6260 C   0  0  0  0  0  0  0  0  0  0  0  0
    5.5860    0.7440   17.6740 N   0  0  0  0  0  0  0  0  0  0  0  0
    4.7730    1.7400   18.0920 C   0  0  0  0  0  0  0  0  0  0  0  0
    4.5240    2.0090   19.4500 C   0  0  0  0  0  0  0  0  0  0  0  0
    5.1660    1.2470   20.4420 C   0  0  0  0  0  0  0  0  0  0  0  0
    4.9160    1.6160   22.1790 S   0  0  0  0  0  0  0  0  0  0  0  0
    6.4090    2.5430   22.5070 C   0  0  0  0  0  0  0  0  0  0  0  0
    6.5900    3.7750   21.8580 C   0  0  0  0  0  0  0  0  0  0  0  0
    7.7840    4.4950   22.0160 C   0  0  0  0  0  0  0  0  0  0  0  0
    8.8090    3.9820   22.8250 C   0  0  0  0  0  0  0  0  0  0  0  0
    8.6230    2.7680   23.5020 C   0  0  0  0  0  0  0  0  0  0  0  0
    7.4150    2.0640   23.3710 C   0  0  0  0  0  0  0  0  0  0  0  0
    7.1730    0.4920   24.4260 Br  0  0  0  0  0  0  0  0  0  0  0  0
  1  2  2  0
  2  3  1  0
  2 10  1  0
  3  4  1  0
  4  5  2  0
  4  9  1  0
  5  6  1  0
  6  7  2  0
  7  8  1  0
  8  9  2  0
 10 11  1  0
 11 12  2  0
 11 16  1  0
 12 13  1  0
 13 14  2  0
 14 15  1  0
 15 16  2  0
 16 17  1  0
 17 18  1  0
 18 19  2  0
 18 23  1  0
 19 20  1  0
 20 21  2  0
 21 22  1  0
 22 23  2  0
 23 24  1  0
M  END
