WPC0038_minimised.pdb
     RDKit          3D

 22 23  0  0  0  0  0  0  0  0999 V2000
    2.2670    3.8600   21.3510 C   0  0  0  0  0  0  0  0  0  0  0  0
    2.2790    2.4320   21.9260 C   0  0  0  0  0  0  0  0  0  0  0  0
    3.4640    1.7780   21.4480 O   0  0  0  0  0  0  0  0  0  0  0  0
    4.6460    2.0240   22.0850 C   0  0  0  0  0  0  0  0  0  0  0  0
    4.7420    2.1880   23.2840 O   0  0  0  0  0  0  0  0  0  0  0  0
    5.7280    1.6390   21.3450 N   0  0  0  0  0  0  0  0  0  0  0  0
    5.7760    1.1850   20.0130 C   0  0  0  0  0  0  0  0  0  0  0  0
    5.0300    1.8180   19.0140 C   0  0  0  0  0  0  0  0  0  0  0  0
    5.1490    1.3920   17.6910 C   0  0  0  0  0  0  0  0  0  0  0  0
    5.9250    0.3490   17.3380 N   0  0  0  0  0  0  0  0  0  0  0  0
    6.6520   -0.2550   18.2970 C   0  0  0  0  0  0  0  0  0  0  0  0
    6.6240    0.1240   19.6490 C   0  0  0  0  0  0  0  0  0  0  0  0
    7.5210   -0.4810   20.5830 N   0  0  0  0  0  0  0  0  0  0  0  0
    8.6590    0.1270   21.0490 C   0  0  0  0  0  0  0  0  0  0  0  0
    8.9020    1.2870   20.7960 O   0  0  0  0  0  0  0  0  0  0  0  0
    9.4950   -0.6800   21.7750 N   0  0  0  0  0  0  0  0  0  0  0  0
   10.8210   -0.3460   22.1400 C   0  0  0  0  0  0  0  0  0  0  0  0
   11.8550   -1.2420   21.8350 C   0  0  0  0  0  0  0  0  0  0  0  0
   13.1950   -0.8950   22.0750 C   0  0  0  0  0  0  0  0  0  0  0  0
   13.5010    0.3460   22.6560 C   0  0  0  0  0  0  0  0  0  0  0  0
   12.4670    1.2340   22.9930 C   0  0  0  0  0  0  0  0  0  0  0  0
   11.1310    0.8900   22.7330 C   0  0  0  0  0  0  0  0  0  0  0  0
  1  2  1  0
  2  3  1  0
  3  4  1  0
  4  5  2  0
  4  6  1  0
  6  7  1  0
  7  8  2  0
  7 12  1  0
  8  9  1  0
  9 10  2  0
 10 11  1  0
 11 12  2  0
 12 13  1  0
 13 14  1  0
 14 15  2  0
 14 16  1  0
 16 17  1  0
 17 18  2  0
 17 22  1  0
 18 19  1  0
 19 20  2  0
 20 21  1  0
 21 22  2  0
M  END
