WPC0046_minimised.pdb
     RDKit          3D

 21 22  0  0  0  0  0  0  0  0999 V2000
    7.0880    0.9150   24.7330 C   0  0  0  0  0  0  0  0  0  0  0  0
    6.1390    1.1320   23.6680 O   0  0  0  0  0  0  0  0  0  0  0  0
    6.3490    2.1470   22.7710 C   0  0  0  0  0  0  0  0  0  0  0  0
    7.2570    2.9490   22.8790 O   0  0  0  0  0  0  0  0  0  0  0  0
    5.2050    2.2460   21.7530 C   0  0  0  0  0  0  0  0  0  0  0  0
    5.3560    1.5080   20.4080 C   0  0  0  0  0  0  0  0  0  0  0  0
    4.6770    2.0410   19.2980 C   0  0  0  0  0  0  0  0  0  0  0  0
    4.8870    1.5250   18.0100 C   0  0  0  0  0  0  0  0  0  0  0  0
    5.6640    0.4500   17.7680 N   0  0  0  0  0  0  0  0  0  0  0  0
    6.2920   -0.0920   18.8290 C   0  0  0  0  0  0  0  0  0  0  0  0
    6.1710    0.3820   20.1560 C   0  0  0  0  0  0  0  0  0  0  0  0
    7.0060   -0.1850   21.1530 N   0  0  0  0  0  0  0  0  0  0  0  0
    8.3690   -0.0710   21.1000 C   0  0  0  0  0  0  0  0  0  0  0  0
    8.9190    0.3900   20.1250 O   0  0  0  0  0  0  0  0  0  0  0  0
    9.0480   -0.4790   22.2130 N   0  0  0  0  0  0  0  0  0  0  0  0
   10.4240   -0.2360   22.4020 C   0  0  0  0  0  0  0  0  0  0  0  0
   11.3700   -1.1930   22.0090 C   0  0  0  0  0  0  0  0  0  0  0  0
   12.7430   -0.9030   22.0890 C   0  0  0  0  0  0  0  0  0  0  0  0
   13.1670    0.3400   22.5880 C   0  0  0  0  0  0  0  0  0  0  0  0
   12.2190    1.2970   22.9860 C   0  0  0  0  0  0  0  0  0  0  0  0
   10.8480    1.0110   22.8850 C   0  0  0  0  0  0  0  0  0  0  0  0
  1  2  1  0
  2  3  1  0
  3  4  2  0
  3  5  1  0
  5  6  1  0
  6  7  2  0
  6 11  1  0
  7  8  1  0
  8  9  2  0
  9 10  1  0
 10 11  2  0
 11 12  1  0
 12 13  1  0
 13 14  2  0
 13 15  1  0
 15 16  1  0
 16 17  2  0
 16 21  1  0
 17 18  1  0
 18 19  2  0
 19 20  1  0
 20 21  2  0
M  END
