WPC0950_minimised.pdb
     RDKit          3D

 23 25  0  0  0  0  0  0  0  0999 V2000
    8.5510    0.1440   19.9060 O   0  0  0  0  0  0  0  0  0  0  0  0
    7.8070   -0.0370   20.8510 C   0  0  0  0  0  0  0  0  0  0  0  0
    8.2320   -0.2840   22.1270 N   0  0  0  0  0  0  0  0  0  0  0  0
    9.5680   -0.1350   22.5450 C   0  0  0  0  0  0  0  0  0  0  0  0
   10.5970   -0.8340   21.8960 C   0  0  0  0  0  0  0  0  0  0  0  0
   11.9370   -0.5430   22.1850 C   0  0  0  0  0  0  0  0  0  0  0  0
   12.2490    0.4570   23.1220 C   0  0  0  0  0  0  0  0  0  0  0  0
   13.6890    0.8590   23.3670 C   0  0  0  0  0  0  0  0  0  0  0  0
   14.1300    1.9340   22.4630 N   0  0  0  0  0  0  0  0  0  0  0  0
   13.5580    3.2270   22.5740 N   0  0  0  0  0  0  0  0  0  0  0  0
   12.2830    3.6400   22.2280 C   0  0  0  0  0  0  0  0  0  0  0  0
   12.1430    4.9220   22.5210 N   0  0  0  0  0  0  0  0  0  0  0  0
   13.3410    5.3850   22.9940 N   0  0  0  0  0  0  0  0  0  0  0  0
   14.1920    4.3780   22.9910 C   0  0  0  0  0  0  0  0  0  0  0  0
   11.2140    1.0960   23.8300 C   0  0  0  0  0  0  0  0  0  0  0  0
    9.8760    0.8040   23.5380 C   0  0  0  0  0  0  0  0  0  0  0  0
    6.4460    0.0400   20.7450 N   0  0  0  0  0  0  0  0  0  0  0  0
    5.7590    0.5620   19.6240 C   0  0  0  0  0  0  0  0  0  0  0  0
    4.7960    1.5570   19.8290 C   0  0  0  0  0  0  0  0  0  0  0  0
    4.2340    2.1620   18.6990 C   0  0  0  0  0  0  0  0  0  0  0  0
    4.6530    1.7660   17.4200 C   0  0  0  0  0  0  0  0  0  0  0  0
    5.5420    0.7680   17.2110 N   0  0  0  0  0  0  0  0  0  0  0  0
    6.0950    0.1970   18.3010 C   0  0  0  0  0  0  0  0  0  0  0  0
  1  2  2  0
  2  3  1  0
  2 17  1  0
  3  4  1  0
  4  5  2  0
  4 16  1  0
  5  6  1  0
  6  7  2  0
  7  8  1  0
  7 15  1  0
  8  9  1  0
  9 10  1  0
 10 11  1  0
 10 14  1  0
 11 12  2  0
 12 13  1  0
 13 14  2  0
 15 16  2  0
 17 18  1  0
 18 19  2  0
 18 23  1  0
 19 20  1  0
 20 21  2  0
 21 22  1  0
 22 23  2  0
M  END
