WPC0221_minimised.pdb
     RDKit          3D

 23 25  0  0  0  0  0  0  0  0999 V2000
    8.6550    0.2720   19.8180 O   0  0  0  0  0  0  0  0  0  0  0  0
    8.0260   -0.1740   20.7550 C   0  0  0  0  0  0  0  0  0  0  0  0
    8.6050   -0.6940   21.8800 N   0  0  0  0  0  0  0  0  0  0  0  0
    9.9880   -0.6660   22.1550 C   0  0  0  0  0  0  0  0  0  0  0  0
   10.6570   -1.8450   22.5130 C   0  0  0  0  0  0  0  0  0  0  0  0
   12.0420   -1.8220   22.7380 C   0  0  0  0  0  0  0  0  0  0  0  0
   12.7580   -0.6190   22.6160 C   0  0  0  0  0  0  0  0  0  0  0  0
   12.0810    0.5690   22.3080 C   0  0  0  0  0  0  0  0  0  0  0  0
   10.7000    0.5430   22.0640 C   0  0  0  0  0  0  0  0  0  0  0  0
    6.6590   -0.1860   20.7630 N   0  0  0  0  0  0  0  0  0  0  0  0
    5.8850    0.4760   19.7790 C   0  0  0  0  0  0  0  0  0  0  0  0
    6.0920    0.1570   18.4210 C   0  0  0  0  0  0  0  0  0  0  0  0
    5.5150    0.8130   17.3990 N   0  0  0  0  0  0  0  0  0  0  0  0
    4.7180    1.8560   17.7130 C   0  0  0  0  0  0  0  0  0  0  0  0
    4.4330    2.2310   19.0350 C   0  0  0  0  0  0  0  0  0  0  0  0
    5.0280    1.5470   20.1090 C   0  0  0  0  0  0  0  0  0  0  0  0
    4.8140    2.0440   21.5420 C   0  0  0  0  0  0  0  0  0  0  0  0
    6.0800    2.6410   22.1440 C   0  0  0  0  0  0  0  0  0  0  0  0
    6.5030    3.9160   21.7350 C   0  0  0  0  0  0  0  0  0  0  0  0
    7.7380    4.4270   22.1590 C   0  0  0  0  0  0  0  0  0  0  0  0
    8.5510    3.6740   23.0190 C   0  0  0  0  0  0  0  0  0  0  0  0
    8.1100    2.4220   23.4770 C   0  0  0  0  0  0  0  0  0  0  0  0
    6.8700    1.9160   23.0560 C   0  0  0  0  0  0  0  0  0  0  0  0
  1  2  2  0
  2  3  1  0
  2 10  1  0
  3  4  1  0
  4  5  2  0
  4  9  1  0
  5  6  1  0
  6  7  2  0
  7  8  1  0
  8  9  2  0
 10 11  1  0
 11 12  2  0
 11 16  1  0
 12 13  1  0
 13 14  2  0
 14 15  1  0
 15 16  2  0
 16 17  1  0
 17 18  1  0
 18 19  2  0
 18 23  1  0
 19 20  1  0
 20 21  2  0
 21 22  1  0
 22 23  2  0
M  END
