WPC0524_minimised.pdb
     RDKit          3D

 24 25  0  0  0  0  0  0  0  0999 V2000
   11.4090    5.1860   25.1410 C   0  0  0  0  0  0  0  0  0  0  0  0
   11.8990    5.7890   23.8200 C   0  0  0  0  0  0  0  0  0  0  0  0
   12.1850    4.7550   22.6980 C   0  0  0  0  0  0  0  0  0  0  0  0
   13.4570    3.9150   22.8230 C   0  0  0  0  0  0  0  0  0  0  0  0
   14.5420    4.3240   23.2080 O   0  0  0  0  0  0  0  0  0  0  0  0
   13.2030    2.6170   22.5050 O   0  0  0  0  0  0  0  0  0  0  0  0
   14.2420    1.6230   22.4050 C   0  0  0  0  0  0  0  0  0  0  0  0
   13.7870    0.3200   23.1020 C   0  0  0  0  0  0  0  0  0  0  0  0
   12.3180   -0.0040   22.8960 C   0  0  0  0  0  0  0  0  0  0  0  0
   11.9120   -0.9230   21.9150 C   0  0  0  0  0  0  0  0  0  0  0  0
   10.5450   -1.1470   21.7010 C   0  0  0  0  0  0  0  0  0  0  0  0
    9.5850   -0.4390   22.4380 C   0  0  0  0  0  0  0  0  0  0  0  0
    8.2340   -0.4770   22.0470 N   0  0  0  0  0  0  0  0  0  0  0  0
    7.8090   -0.1180   20.7960 C   0  0  0  0  0  0  0  0  0  0  0  0
    8.5570    0.1160   19.8650 O   0  0  0  0  0  0  0  0  0  0  0  0
    6.4510   -0.0080   20.6920 N   0  0  0  0  0  0  0  0  0  0  0  0
    5.7780    0.5580   19.5830 C   0  0  0  0  0  0  0  0  0  0  0  0
    4.8140    1.5470   19.8060 C   0  0  0  0  0  0  0  0  0  0  0  0
    4.2760    2.1940   18.6860 C   0  0  0  0  0  0  0  0  0  0  0  0
    4.7260    1.8500   17.4030 C   0  0  0  0  0  0  0  0  0  0  0  0
    5.6170    0.8580   17.1760 N   0  0  0  0  0  0  0  0  0  0  0  0
    6.1380    0.2410   18.2540 C   0  0  0  0  0  0  0  0  0  0  0  0
    9.9850    0.4200   23.4670 C   0  0  0  0  0  0  0  0  0  0  0  0
   11.3510    0.6280   23.6970 C   0  0  0  0  0  0  0  0  0  0  0  0
  1  2  1  0
  2  3  1  0
  3  4  1  0
  4  5  2  0
  4  6  1  0
  6  7  1  0
  7  8  1  0
  8  9  1  0
  9 24  2  0
  9 10  1  0
 10 11  2  0
 11 12  1  0
 12 13  1  0
 12 23  2  0
 13 14  1  0
 14 15  2  0
 14 16  1  0
 16 17  1  0
 17 18  2  0
 17 22  1  0
 18 19  1  0
 19 20  2  0
 20 21  1  0
 21 22  2  0
 23 24  1  0
M  END
