WPC0418_minimised.pdb
     RDKit          3D

 23 24  0  0  0  0  0  0  0  0999 V2000
   10.7630    5.8130   24.3390 O   0  0  0  0  0  0  0  0  0  0  0  0
   11.9500    5.9550   24.1310 C   0  0  0  0  0  0  0  0  0  0  0  0
   12.6480    6.9280   24.7410 O   0  0  0  0  0  0  0  0  0  0  0  0
   12.7820    5.0760   23.1980 C   0  0  0  0  0  0  0  0  0  0  0  0
   12.4720    3.5700   23.3510 C   0  0  0  0  0  0  0  0  0  0  0  0
   13.6210    2.6930   22.8030 C   0  0  0  0  0  0  0  0  0  0  0  0
   13.6590    1.0080   23.5500 S   0  0  0  0  0  0  0  0  0  0  0  0
   12.0340    0.3900   23.2190 C   0  0  0  0  0  0  0  0  0  0  0  0
   11.8320   -0.4090   22.0880 C   0  0  0  0  0  0  0  0  0  0  0  0
   10.5310   -0.7960   21.7420 C   0  0  0  0  0  0  0  0  0  0  0  0
    9.4370   -0.3580   22.5050 C   0  0  0  0  0  0  0  0  0  0  0  0
    8.1230   -0.5220   22.0190 N   0  0  0  0  0  0  0  0  0  0  0  0
    7.7330   -0.1740   20.7530 C   0  0  0  0  0  0  0  0  0  0  0  0
    8.4990    0.0920   19.8460 O   0  0  0  0  0  0  0  0  0  0  0  0
    6.3760   -0.1000   20.6110 N   0  0  0  0  0  0  0  0  0  0  0  0
    5.7270    0.5050   19.5100 C   0  0  0  0  0  0  0  0  0  0  0  0
    4.7670    1.4960   19.7480 C   0  0  0  0  0  0  0  0  0  0  0  0
    4.2590    2.1860   18.6400 C   0  0  0  0  0  0  0  0  0  0  0  0
    4.7330    1.8830   17.3560 C   0  0  0  0  0  0  0  0  0  0  0  0
    5.6210    0.8920   17.1140 N   0  0  0  0  0  0  0  0  0  0  0  0
    6.1150    0.2330   18.1810 C   0  0  0  0  0  0  0  0  0  0  0  0
    9.6500    0.3700   23.6840 C   0  0  0  0  0  0  0  0  0  0  0  0
   10.9540    0.7360   24.0490 C   0  0  0  0  0  0  0  0  0  0  0  0
  1  2  2  0
  2  3  1  0
  2  4  1  0
  4  5  1  0
  5  6  1  0
  6  7  1  0
  7  8  1  0
  8 23  2  0
  8  9  1  0
  9 10  2  0
 10 11  1  0
 11 12  1  0
 11 22  2  0
 12 13  1  0
 13 14  2  0
 13 15  1  0
 15 16  1  0
 16 17  2  0
 16 21  1  0
 17 18  1  0
 18 19  2  0
 19 20  1  0
 20 21  2  0
 22 23  1  0
M  END
