WPC0778_minimised.pdb
     RDKit          3D

 22 23  0  0  0  0  0  0  0  0999 V2000
   13.1220    4.6750   22.5410 C   0  0  0  0  0  0  0  0  0  0  0  0
   12.7740    3.4540   23.3840 C   0  0  0  0  0  0  0  0  0  0  0  0
   11.9950    3.5610   24.3130 O   0  0  0  0  0  0  0  0  0  0  0  0
   13.4200    2.2510   23.1010 N   0  0  0  0  0  0  0  0  0  0  0  0
   14.4290    2.1060   22.0450 C   0  0  0  0  0  0  0  0  0  0  0  0
   13.1140    1.0150   23.8380 C   0  0  0  0  0  0  0  0  0  0  0  0
   11.7830    0.4270   23.4320 C   0  0  0  0  0  0  0  0  0  0  0  0
   11.6870   -0.3970   22.3000 C   0  0  0  0  0  0  0  0  0  0  0  0
   10.4290   -0.8300   21.8620 C   0  0  0  0  0  0  0  0  0  0  0  0
    9.2690   -0.4230   22.5370 C   0  0  0  0  0  0  0  0  0  0  0  0
    7.9960   -0.6420   21.9770 N   0  0  0  0  0  0  0  0  0  0  0  0
    7.6620   -0.2990   20.6950 C   0  0  0  0  0  0  0  0  0  0  0  0
    8.4590   -0.0580   19.8080 O   0  0  0  0  0  0  0  0  0  0  0  0
    6.3110   -0.1880   20.5250 N   0  0  0  0  0  0  0  0  0  0  0  0
    5.6950    0.4580   19.4290 C   0  0  0  0  0  0  0  0  0  0  0  0
    4.7390    1.4500   19.6790 C   0  0  0  0  0  0  0  0  0  0  0  0
    4.2510    2.1730   18.5840 C   0  0  0  0  0  0  0  0  0  0  0  0
    4.7400    1.8990   17.3000 C   0  0  0  0  0  0  0  0  0  0  0  0
    5.6300    0.9130   17.0450 N   0  0  0  0  0  0  0  0  0  0  0  0
    6.1050    0.2220   18.1000 C   0  0  0  0  0  0  0  0  0  0  0  0
    9.3690    0.3360   23.7110 C   0  0  0  0  0  0  0  0  0  0  0  0
   10.6270    0.7560   24.1630 C   0  0  0  0  0  0  0  0  0  0  0  0
  1  2  1  0
  2  3  2  0
  2  4  1  0
  4  5  1  0
  4  6  1  0
  6  7  1  0
  7 22  2  0
  7  8  1  0
  8  9  2  0
  9 10  1  0
 10 11  1  0
 10 21  2  0
 11 12  1  0
 12 13  2  0
 12 14  1  0
 14 15  1  0
 15 16  2  0
 15 20  1  0
 16 17  1  0
 17 18  2  0
 18 19  1  0
 19 20  2  0
 21 22  1  0
M  END
