WPC0351_minimised.pdb
     RDKit          3D

 23 24  0  0  0  0  0  0  0  0999 V2000
    7.0230   -3.3160   24.9090 C   0  0  0  0  0  0  0  0  0  0  0  0
    7.5690   -3.6500   23.4990 C   0  0  0  0  0  0  0  0  0  0  0  0
    6.4410   -4.2430   22.6290 C   0  0  0  0  0  0  0  0  0  0  0  0
    8.7510   -4.6490   23.5570 C   0  0  0  0  0  0  0  0  0  0  0  0
    7.9630   -2.4400   22.8060 O   0  0  0  0  0  0  0  0  0  0  0  0
    8.9520   -1.6080   23.2620 C   0  0  0  0  0  0  0  0  0  0  0  0
    9.5970   -1.8180   24.2730 O   0  0  0  0  0  0  0  0  0  0  0  0
    9.3120   -0.6320   22.3480 N   0  0  0  0  0  0  0  0  0  0  0  0
    8.5900   -0.1660   21.2610 C   0  0  0  0  0  0  0  0  0  0  0  0
    9.1090    0.5290   20.4060 O   0  0  0  0  0  0  0  0  0  0  0  0
    7.2420   -0.4250   21.1510 N   0  0  0  0  0  0  0  0  0  0  0  0
    6.4260    0.1010   20.1100 C   0  0  0  0  0  0  0  0  0  0  0  0
    5.4610    1.0760   20.3980 C   0  0  0  0  0  0  0  0  0  0  0  0
    4.8050    1.6900   19.3200 C   0  0  0  0  0  0  0  0  0  0  0  0
    5.1250    1.3130   18.0060 C   0  0  0  0  0  0  0  0  0  0  0  0
    6.0280    0.3500   17.7190 N   0  0  0  0  0  0  0  0  0  0  0  0
    6.6810   -0.2140   18.7580 C   0  0  0  0  0  0  0  0  0  0  0  0
   10.5900   -0.0370   22.5390 C   0  0  0  0  0  0  0  0  0  0  0  0
   11.7360   -0.6460   22.0010 C   0  0  0  0  0  0  0  0  0  0  0  0
   12.9990   -0.0580   22.1810 C   0  0  0  0  0  0  0  0  0  0  0  0
   13.1140    1.1450   22.8960 C   0  0  0  0  0  0  0  0  0  0  0  0
   11.9650    1.7690   23.4100 C   0  0  0  0  0  0  0  0  0  0  0  0
   10.7060    1.1750   23.2400 C   0  0  0  0  0  0  0  0  0  0  0  0
  1  2  1  0
  2  5  1  0
  2  3  1  0
  2  4  1  0
  5  6  1  0
  6  8  1  0
  6  7  2  0
  8  9  1  0
  8 18  1  0
  9 11  1  0
  9 10  2  0
 11 12  1  0
 12 13  2  0
 12 17  1  0
 13 14  1  0
 14 15  2  0
 15 16  1  0
 16 17  2  0
 18 19  2  0
 18 23  1  0
 19 20  1  0
 20 21  2  0
 21 22  1  0
 22 23  2  0
M  END
