WPC0714_minimised.pdb
     RDKit          3D

 21 22  0  0  0  0  0  0  0  0999 V2000
    8.4530   -0.0060   19.8520 O   0  0  0  0  0  0  0  0  0  0  0  0
    7.6820   -0.2190   20.7690 C   0  0  0  0  0  0  0  0  0  0  0  0
    8.0580   -0.5210   22.0490 N   0  0  0  0  0  0  0  0  0  0  0  0
    9.3650   -0.3330   22.5370 C   0  0  0  0  0  0  0  0  0  0  0  0
   10.4600   -0.8910   21.8640 C   0  0  0  0  0  0  0  0  0  0  0  0
   11.7640   -0.5040   22.1990 C   0  0  0  0  0  0  0  0  0  0  0  0
   11.9730    0.4480   23.2100 C   0  0  0  0  0  0  0  0  0  0  0  0
   13.3690    0.9760   23.4870 C   0  0  0  0  0  0  0  0  0  0  0  0
   13.6850    2.3410   22.8190 C   0  0  0  0  0  0  0  0  0  0  0  0
   12.6540    3.4680   23.0820 C   0  0  0  0  0  0  0  0  0  0  0  0
   13.2260    4.8940   22.9260 C   0  0  0  0  0  0  0  0  0  0  0  0
   13.9040    5.0700   21.6850 O   0  0  0  0  0  0  0  0  0  0  0  0
   10.8780    0.9070   23.9670 C   0  0  0  0  0  0  0  0  0  0  0  0
    9.5740    0.5270   23.6230 C   0  0  0  0  0  0  0  0  0  0  0  0
    6.3260   -0.1150   20.6320 N   0  0  0  0  0  0  0  0  0  0  0  0
    5.6760    0.4840   19.5280 C   0  0  0  0  0  0  0  0  0  0  0  0
    4.7230    1.4820   19.7660 C   0  0  0  0  0  0  0  0  0  0  0  0
    4.1940    2.1530   18.6570 C   0  0  0  0  0  0  0  0  0  0  0  0
    4.6360    1.8190   17.3690 C   0  0  0  0  0  0  0  0  0  0  0  0
    5.5220    0.8260   17.1290 N   0  0  0  0  0  0  0  0  0  0  0  0
    6.0420    0.1900   18.1970 C   0  0  0  0  0  0  0  0  0  0  0  0
  1  2  2  0
  2  3  1  0
  2 15  1  0
  3  4  1  0
  4  5  2  0
  4 14  1  0
  5  6  1  0
  6  7  2  0
  7  8  1  0
  7 13  1  0
  8  9  1  0
  9 10  1  0
 10 11  1  0
 11 12  1  0
 13 14  2  0
 15 16  1  0
 16 17  2  0
 16 21  1  0
 17 18  1  0
 18 19  2  0
 19 20  1  0
 20 21  2  0
M  END
