WPC0764_minimised.pdb
     RDKit          3D

 22 23  0  0  0  0  0  0  0  0999 V2000
   11.9350    5.6580   24.0150 C   0  0  0  0  0  0  0  0  0  0  0  0
   12.9450    4.6980   23.5320 N   0  0  0  0  0  0  0  0  0  0  0  0
   13.5730    5.1630   22.2780 C   0  0  0  0  0  0  0  0  0  0  0  0
   12.3950    3.3260   23.4670 C   0  0  0  0  0  0  0  0  0  0  0  0
   13.4200    2.2680   22.9880 C   0  0  0  0  0  0  0  0  0  0  0  0
   13.2070    0.8490   23.5750 C   0  0  0  0  0  0  0  0  0  0  0  0
   11.8250    0.2900   23.2980 C   0  0  0  0  0  0  0  0  0  0  0  0
   11.6290   -0.5930   22.2230 C   0  0  0  0  0  0  0  0  0  0  0  0
   10.3310   -0.9690   21.8590 C   0  0  0  0  0  0  0  0  0  0  0  0
    9.2290   -0.4590   22.5590 C   0  0  0  0  0  0  0  0  0  0  0  0
    7.9310   -0.5940   22.0310 N   0  0  0  0  0  0  0  0  0  0  0  0
    7.5960   -0.2270   20.7540 C   0  0  0  0  0  0  0  0  0  0  0  0
    8.3940    0.0010   19.8640 O   0  0  0  0  0  0  0  0  0  0  0  0
    6.2480   -0.0850   20.5920 N   0  0  0  0  0  0  0  0  0  0  0  0
    5.6300    0.5370   19.4820 C   0  0  0  0  0  0  0  0  0  0  0  0
    4.6720    1.5320   19.7080 C   0  0  0  0  0  0  0  0  0  0  0  0
    4.1740    2.2190   18.5940 C   0  0  0  0  0  0  0  0  0  0  0  0
    4.6520    1.9030   17.3150 C   0  0  0  0  0  0  0  0  0  0  0  0
    5.5430    0.9120   17.0840 N   0  0  0  0  0  0  0  0  0  0  0  0
    6.0310    0.2600   18.1580 C   0  0  0  0  0  0  0  0  0  0  0  0
    9.4250    0.3170   23.7080 C   0  0  0  0  0  0  0  0  0  0  0  0
   10.7250    0.6770   24.0880 C   0  0  0  0  0  0  0  0  0  0  0  0
  1  2  1  0
  2  3  1  0
  2  4  1  0
  4  5  1  0
  5  6  1  0
  6  7  1  0
  7 22  2  0
  7  8  1  0
  8  9  2  0
  9 10  1  0
 10 11  1  0
 10 21  2  0
 11 12  1  0
 12 13  2  0
 12 14  1  0
 14 15  1  0
 15 16  2  0
 15 20  1  0
 16 17  1  0
 17 18  2  0
 18 19  1  0
 19 20  2  0
 21 22  1  0
M  END
