WPC0927_minimised.pdb
     RDKit          3D

 23 24  0  0  0  0  0  0  0  0999 V2000
   12.8630    5.7930   24.3140 N   0  0  0  0  0  0  0  0  0  0  0  0
   11.8550    5.1830   23.6340 C   0  0  0  0  0  0  0  0  0  0  0  0
   10.2840    5.4580   24.0740 S   0  0  0  0  0  0  0  0  0  0  0  0
   12.2540    4.3850   22.5810 N   0  0  0  0  0  0  0  0  0  0  0  0
   13.5640    4.1260   22.2440 N   0  0  0  0  0  0  0  0  0  0  0  0
   14.1570    2.9810   22.3660 C   0  0  0  0  0  0  0  0  0  0  0  0
   13.6750    1.6930   23.0270 C   0  0  0  0  0  0  0  0  0  0  0  0
   12.2670    1.2000   22.7600 C   0  0  0  0  0  0  0  0  0  0  0  0
   12.0480    0.1750   21.8260 C   0  0  0  0  0  0  0  0  0  0  0  0
   10.7500   -0.3100   21.6150 C   0  0  0  0  0  0  0  0  0  0  0  0
    9.6650    0.2420   22.3130 C   0  0  0  0  0  0  0  0  0  0  0  0
    8.3410   -0.0900   21.9620 N   0  0  0  0  0  0  0  0  0  0  0  0
    7.8560    0.0070   20.6870 C   0  0  0  0  0  0  0  0  0  0  0  0
    8.5580    0.1220   19.7020 O   0  0  0  0  0  0  0  0  0  0  0  0
    6.4910    0.0420   20.6230 N   0  0  0  0  0  0  0  0  0  0  0  0
    5.7740    0.5650   19.5200 C   0  0  0  0  0  0  0  0  0  0  0  0
    4.8250    1.5670   19.7510 C   0  0  0  0  0  0  0  0  0  0  0  0
    4.2670    2.2050   18.6370 C   0  0  0  0  0  0  0  0  0  0  0  0
    4.6910    1.8480   17.3500 C   0  0  0  0  0  0  0  0  0  0  0  0
    5.5620    0.8410   17.1150 N   0  0  0  0  0  0  0  0  0  0  0  0
    6.0970    0.2240   18.1880 C   0  0  0  0  0  0  0  0  0  0  0  0
    9.8900    1.2160   23.2940 C   0  0  0  0  0  0  0  0  0  0  0  0
   11.1920    1.6740   23.5340 C   0  0  0  0  0  0  0  0  0  0  0  0
  1  2  1  0
  2  3  2  0
  2  4  1  0
  4  5  1  0
  5  6  2  0
  6  7  1  0
  7  8  1  0
  8 23  2  0
  8  9  1  0
  9 10  2  0
 10 11  1  0
 11 12  1  0
 11 22  2  0
 12 13  1  0
 13 14  2  0
 13 15  1  0
 15 16  1  0
 16 17  2  0
 16 21  1  0
 17 18  1  0
 18 19  2  0
 19 20  1  0
 20 21  2  0
 22 23  1  0
M  END
