WPC0839_minimised.pdb
     RDKit          3D

 23 24  0  0  0  0  0  0  0  0999 V2000
   14.7390    1.5300   22.1240 C   0  0  0  0  0  0  0  0  0  0  0  0
   13.7110    2.3660   22.7640 N   0  0  0  0  0  0  0  0  0  0  0  0
   12.9310    1.6410   23.7840 C   0  0  0  0  0  0  0  0  0  0  0  0
   11.6080    1.1000   23.2860 C   0  0  0  0  0  0  0  0  0  0  0  0
   11.5470    0.0610   22.3390 C   0  0  0  0  0  0  0  0  0  0  0  0
   10.3030   -0.4230   21.9090 C   0  0  0  0  0  0  0  0  0  0  0  0
    9.1210    0.1190   22.4350 C   0  0  0  0  0  0  0  0  0  0  0  0
    7.8630   -0.2500   21.9270 N   0  0  0  0  0  0  0  0  0  0  0  0
    7.5170   -0.1110   20.6140 C   0  0  0  0  0  0  0  0  0  0  0  0
    8.3080   -0.0010   19.6990 O   0  0  0  0  0  0  0  0  0  0  0  0
    6.1650   -0.0140   20.4500 N   0  0  0  0  0  0  0  0  0  0  0  0
    5.5480    0.5940   19.3350 C   0  0  0  0  0  0  0  0  0  0  0  0
    4.5990    1.5990   19.5590 C   0  0  0  0  0  0  0  0  0  0  0  0
    4.1180    2.2970   18.4450 C   0  0  0  0  0  0  0  0  0  0  0  0
    4.6120    1.9900   17.1700 C   0  0  0  0  0  0  0  0  0  0  0  0
    5.4950    0.9910   16.9420 N   0  0  0  0  0  0  0  0  0  0  0  0
    5.9590    0.3200   18.0140 C   0  0  0  0  0  0  0  0  0  0  0  0
    9.1780    1.1240   23.4080 C   0  0  0  0  0  0  0  0  0  0  0  0
   10.4190    1.6130   23.8340 C   0  0  0  0  0  0  0  0  0  0  0  0
   13.9040    3.7270   22.8590 C   0  0  0  0  0  0  0  0  0  0  0  0
   14.9310    4.1390   23.4790 N   0  0  0  0  0  0  0  0  0  0  0  0
   12.9440    4.6790   22.1910 C   0  0  0  0  0  0  0  0  0  0  0  0
   13.9950    6.1010   21.6130 S   0  0  0  0  0  0  0  0  0  0  0  0
  1  2  1  0
  2 20  1  0
  2  3  1  0
  3  4  1  0
  4 19  2  0
  4  5  1  0
  5  6  2  0
  6  7  1  0
  7  8  1  0
  7 18  2  0
  8  9  1  0
  9 10  2  0
  9 11  1  0
 11 12  1  0
 12 13  2  0
 12 17  1  0
 13 14  1  0
 14 15  2  0
 15 16  1  0
 16 17  2  0
 18 19  1  0
 20 22  1  0
 20 21  2  0
 22 23  1  0
M  END
