WPC0655_minimised.pdb
     RDKit          3D

 21 22  0  0  0  0  0  0  0  0999 V2000
   15.1850    4.3980   23.1700 N   0  0  0  0  0  0  0  0  0  0  0  0
   14.1140    3.9020   22.6940 C   0  0  0  0  0  0  0  0  0  0  0  0
   13.9710    2.4000   22.5190 C   0  0  0  0  0  0  0  0  0  0  0  0
   12.5810    1.7760   22.5530 C   0  0  0  0  0  0  0  0  0  0  0  0
   12.3670    0.6040   21.8080 C   0  0  0  0  0  0  0  0  0  0  0  0
   11.0930    0.0240   21.7490 C   0  0  0  0  0  0  0  0  0  0  0  0
   10.0190    0.6180   22.4280 C   0  0  0  0  0  0  0  0  0  0  0  0
    8.6970    0.1930   22.1750 N   0  0  0  0  0  0  0  0  0  0  0  0
    8.1580    0.1680   20.9160 C   0  0  0  0  0  0  0  0  0  0  0  0
    8.8210    0.2660   19.9020 O   0  0  0  0  0  0  0  0  0  0  0  0
    6.7900    0.1080   20.8850 N   0  0  0  0  0  0  0  0  0  0  0  0
    6.0220    0.5220   19.7680 C   0  0  0  0  0  0  0  0  0  0  0  0
    5.0470    1.5080   19.9600 C   0  0  0  0  0  0  0  0  0  0  0  0
    4.4370    2.0520   18.8240 C   0  0  0  0  0  0  0  0  0  0  0  0
    4.8330    1.6210   17.5520 C   0  0  0  0  0  0  0  0  0  0  0  0
    5.7240    0.6240   17.3550 N   0  0  0  0  0  0  0  0  0  0  0  0
    6.3150    0.1020   18.4510 C   0  0  0  0  0  0  0  0  0  0  0  0
   10.2450    1.7340   23.2490 C   0  0  0  0  0  0  0  0  0  0  0  0
   11.5270    2.3040   23.3240 C   0  0  0  0  0  0  0  0  0  0  0  0
   13.0880    4.7640   22.3560 N   0  0  0  0  0  0  0  0  0  0  0  0
   12.8130    5.7220   23.3900 O   0  0  0  0  0  0  0  0  0  0  0  0
  1  2  2  0
  2 20  1  0
  2  3  1  0
  3  4  1  0
  4 19  2  0
  4  5  1  0
  5  6  2  0
  6  7  1  0
  7  8  1  0
  7 18  2  0
  8  9  1  0
  9 10  2  0
  9 11  1  0
 11 12  1  0
 12 13  2  0
 12 17  1  0
 13 14  1  0
 14 15  2  0
 15 16  1  0
 16 17  2  0
 18 19  1  0
 20 21  1  0
M  END
