WPC0875_minimised.pdb
     RDKit          3D

 20 21  0  0  0  0  0  0  0  0999 V2000
   12.6560    2.8200   23.1820 C   0  0  0  0  0  0  0  0  0  0  0  0
   13.3920    1.7040   23.1190 C   0  0  0  0  0  0  0  0  0  0  0  0
   14.7570    1.6640   22.4760 C   0  0  0  0  0  0  0  0  0  0  0  0
   12.9570    0.3660   23.6770 C   0  0  0  0  0  0  0  0  0  0  0  0
   11.5200    0.0200   23.3490 C   0  0  0  0  0  0  0  0  0  0  0  0
   11.2470   -0.7220   22.1900 C   0  0  0  0  0  0  0  0  0  0  0  0
    9.9230   -0.9260   21.7920 C   0  0  0  0  0  0  0  0  0  0  0  0
    8.8710   -0.3590   22.5260 C   0  0  0  0  0  0  0  0  0  0  0  0
    7.5730   -0.3330   21.9810 N   0  0  0  0  0  0  0  0  0  0  0  0
    7.2910    0.0630   20.7000 C   0  0  0  0  0  0  0  0  0  0  0  0
    8.1220    0.2580   19.8310 O   0  0  0  0  0  0  0  0  0  0  0  0
    5.9540    0.2480   20.4970 N   0  0  0  0  0  0  0  0  0  0  0  0
    5.3810    0.8390   19.3490 C   0  0  0  0  0  0  0  0  0  0  0  0
    4.4030    1.8270   19.5080 C   0  0  0  0  0  0  0  0  0  0  0  0
    3.9490    2.4800   18.3560 C   0  0  0  0  0  0  0  0  0  0  0  0
    4.4930    2.1430   17.1090 C   0  0  0  0  0  0  0  0  0  0  0  0
    5.4010    1.1550   16.9410 N   0  0  0  0  0  0  0  0  0  0  0  0
    5.8420    0.5320   18.0510 C   0  0  0  0  0  0  0  0  0  0  0  0
    9.1350    0.3060   23.7320 C   0  0  0  0  0  0  0  0  0  0  0  0
   10.4620    0.4840   24.1530 C   0  0  0  0  0  0  0  0  0  0  0  0
  1  2  2  0
  2  3  1  0
  2  4  1  0
  4  5  1  0
  5 20  2  0
  5  6  1  0
  6  7  2  0
  7  8  1  0
  8  9  1  0
  8 19  2  0
  9 10  1  0
 10 11  2  0
 10 12  1  0
 12 13  1  0
 13 14  2  0
 13 18  1  0
 14 15  1  0
 15 16  2  0
 16 17  1  0
 17 18  2  0
 19 20  1  0
M  END
