WPC0592_minimised.pdb
     RDKit          3D

 24 26  0  0  0  0  0  0  0  0999 V2000
    8.6640    0.1060   19.9920 O   0  0  0  0  0  0  0  0  0  0  0  0
    7.9390   -0.1200   20.9400 C   0  0  0  0  0  0  0  0  0  0  0  0
    8.3840   -0.3960   22.2060 N   0  0  0  0  0  0  0  0  0  0  0  0
    9.7180   -0.2340   22.6400 C   0  0  0  0  0  0  0  0  0  0  0  0
   10.7830   -0.8240   21.9410 C   0  0  0  0  0  0  0  0  0  0  0  0
   12.1100   -0.5290   22.2930 C   0  0  0  0  0  0  0  0  0  0  0  0
   12.3780    0.3690   23.3390 C   0  0  0  0  0  0  0  0  0  0  0  0
   13.8100    0.7760   23.6620 C   0  0  0  0  0  0  0  0  0  0  0  0
   14.5250    1.5900   22.5660 C   0  0  0  0  0  0  0  0  0  0  0  0
   13.8240    2.7960   22.0800 N   0  0  0  0  0  0  0  0  0  0  0  0
   14.5650    3.4620   20.9880 C   0  0  0  0  0  0  0  0  0  0  0  0
   15.0390    4.8690   21.3730 C   0  0  0  0  0  0  0  0  0  0  0  0
   13.8760    5.7920   21.7730 C   0  0  0  0  0  0  0  0  0  0  0  0
   12.7350    5.0100   22.4640 C   0  0  0  0  0  0  0  0  0  0  0  0
   13.2540    3.7060   23.1000 C   0  0  0  0  0  0  0  0  0  0  0  0
   11.3070    0.8920   24.0870 C   0  0  0  0  0  0  0  0  0  0  0  0
    9.9820    0.5960   23.7360 C   0  0  0  0  0  0  0  0  0  0  0  0
    6.5750   -0.0730   20.8390 N   0  0  0  0  0  0  0  0  0  0  0  0
    5.8750    0.4450   19.7210 C   0  0  0  0  0  0  0  0  0  0  0  0
    4.9080    1.4360   19.9310 C   0  0  0  0  0  0  0  0  0  0  0  0
    4.3330    2.0350   18.8030 C   0  0  0  0  0  0  0  0  0  0  0  0
    4.7380    1.6320   17.5230 C   0  0  0  0  0  0  0  0  0  0  0  0
    5.6310    0.6390   17.3090 N   0  0  0  0  0  0  0  0  0  0  0  0
    6.2020    0.0800   18.3960 C   0  0  0  0  0  0  0  0  0  0  0  0
  1  2  2  0
  2  3  1  0
  2 18  1  0
  3  4  1  0
  4  5  2  0
  4 17  1  0
  5  6  1  0
  6  7  2  0
  7  8  1  0
  7 16  1  0
  8  9  1  0
  9 10  1  0
 10 11  1  0
 10 15  1  0
 11 12  1  0
 12 13  1  0
 13 14  1  0
 14 15  1  0
 16 17  2  0
 18 19  1  0
 19 20  2  0
 19 24  1  0
 20 21  1  0
 21 22  2  0
 22 23  1  0
 23 24  2  0
M  END
