WPC0397_minimised.pdb
     RDKit          3D

 20 21  0  0  0  0  0  0  0  0999 V2000
   12.6440    4.5780   23.0040 C   0  0  0  0  0  0  0  0  0  0  0  0
   12.1640    3.1880   23.4540 C   0  0  0  0  0  0  0  0  0  0  0  0
   13.2800    2.2810   23.3580 O   0  0  0  0  0  0  0  0  0  0  0  0
   13.1240    0.9320   23.8490 C   0  0  0  0  0  0  0  0  0  0  0  0
   11.7920    0.3390   23.4430 C   0  0  0  0  0  0  0  0  0  0  0  0
   11.6790   -0.3480   22.2270 C   0  0  0  0  0  0  0  0  0  0  0  0
   10.4190   -0.7730   21.7890 C   0  0  0  0  0  0  0  0  0  0  0  0
    9.2710   -0.4790   22.5410 C   0  0  0  0  0  0  0  0  0  0  0  0
    7.9860   -0.6490   21.9880 N   0  0  0  0  0  0  0  0  0  0  0  0
    7.6330   -0.2500   20.7260 C   0  0  0  0  0  0  0  0  0  0  0  0
    8.4160    0.0400   19.8410 O   0  0  0  0  0  0  0  0  0  0  0  0
    6.2810   -0.1470   20.5660 N   0  0  0  0  0  0  0  0  0  0  0  0
    5.6580    0.4920   19.4700 C   0  0  0  0  0  0  0  0  0  0  0  0
    4.7130    1.4970   19.7110 C   0  0  0  0  0  0  0  0  0  0  0  0
    4.2250    2.2070   18.6070 C   0  0  0  0  0  0  0  0  0  0  0  0
    4.7040    1.9090   17.3230 C   0  0  0  0  0  0  0  0  0  0  0  0
    5.5840    0.9120   17.0790 N   0  0  0  0  0  0  0  0  0  0  0  0
    6.0560    0.2310   18.1420 C   0  0  0  0  0  0  0  0  0  0  0  0
    9.3960    0.1260   23.7990 C   0  0  0  0  0  0  0  0  0  0  0  0
   10.6590    0.5220   24.2590 C   0  0  0  0  0  0  0  0  0  0  0  0
  1  2  1  0
  2  3  1  0
  3  4  1  0
  4  5  1  0
  5 20  2  0
  5  6  1  0
  6  7  2  0
  7  8  1  0
  8  9  1  0
  8 19  2  0
  9 10  1  0
 10 11  2  0
 10 12  1  0
 12 13  1  0
 13 14  2  0
 13 18  1  0
 14 15  1  0
 15 16  2  0
 16 17  1  0
 17 18  2  0
 19 20  1  0
M  END
