WPC0844_minimised.pdb
     RDKit          3D

 21 22  0  0  0  0  0  0  0  0999 V2000
   13.9610    5.1090   22.5100 N   0  0  0  0  0  0  0  0  0  0  0  0
   13.0200    4.5800   23.3290 C   0  0  0  0  0  0  0  0  0  0  0  0
   12.4070    5.4760   24.5790 S   0  0  0  0  0  0  0  0  0  0  0  0
   12.8540    3.2360   23.1310 N   0  0  0  0  0  0  0  0  0  0  0  0
   12.2220    2.3200   24.0870 C   0  0  0  0  0  0  0  0  0  0  0  0
   11.0920    1.5070   23.5100 C   0  0  0  0  0  0  0  0  0  0  0  0
   11.3220    0.5500   22.5060 C   0  0  0  0  0  0  0  0  0  0  0  0
   10.2410   -0.1630   21.9640 C   0  0  0  0  0  0  0  0  0  0  0  0
    8.9400    0.0810   22.4340 C   0  0  0  0  0  0  0  0  0  0  0  0
    7.8140   -0.4600   21.7930 N   0  0  0  0  0  0  0  0  0  0  0  0
    7.5430   -0.2310   20.4760 C   0  0  0  0  0  0  0  0  0  0  0  0
    8.3770   -0.0130   19.6170 O   0  0  0  0  0  0  0  0  0  0  0  0
    6.1980   -0.1570   20.2520 N   0  0  0  0  0  0  0  0  0  0  0  0
    5.6160    0.5310   19.1670 C   0  0  0  0  0  0  0  0  0  0  0  0
    4.6560    1.5170   19.4260 C   0  0  0  0  0  0  0  0  0  0  0  0
    4.2010    2.2830   18.3460 C   0  0  0  0  0  0  0  0  0  0  0  0
    4.7390    2.0660   17.0700 C   0  0  0  0  0  0  0  0  0  0  0  0
    5.6430    1.0950   16.8090 N   0  0  0  0  0  0  0  0  0  0  0  0
    6.0730    0.3520   17.8470 C   0  0  0  0  0  0  0  0  0  0  0  0
    8.7210    0.9920   23.4750 C   0  0  0  0  0  0  0  0  0  0  0  0
    9.7980    1.7030   24.0160 C   0  0  0  0  0  0  0  0  0  0  0  0
  1  2  1  0
  2  3  2  0
  2  4  1  0
  4  5  1  0
  5  6  1  0
  6 21  2  0
  6  7  1  0
  7  8  2  0
  8  9  1  0
  9 10  1  0
  9 20  2  0
 10 11  1  0
 11 12  2  0
 11 13  1  0
 13 14  1  0
 14 15  2  0
 14 19  1  0
 15 16  1  0
 16 17  2  0
 17 18  1  0
 18 19  2  0
 20 21  1  0
M  END
