WPC0114_minimised.pdb
     RDKit          3D

 22 23  0  0  0  0  0  0  0  0999 V2000
    7.9360    4.6440   22.0900 C   0  0  0  0  0  0  0  0  0  0  0  0
    6.5150    4.0670   21.9410 C   0  0  0  0  0  0  0  0  0  0  0  0
    6.4700    2.6250   22.4640 C   0  0  0  0  0  0  0  0  0  0  0  0
    5.0480    2.0840   22.5170 C   0  0  0  0  0  0  0  0  0  0  0  0
    4.3810    2.1250   23.5340 O   0  0  0  0  0  0  0  0  0  0  0  0
    4.4840    1.5190   21.4000 N   0  0  0  0  0  0  0  0  0  0  0  0
    5.0110    1.2800   20.1060 C   0  0  0  0  0  0  0  0  0  0  0  0
    4.4960    2.0060   19.0280 C   0  0  0  0  0  0  0  0  0  0  0  0
    4.9400    1.7320   17.7270 C   0  0  0  0  0  0  0  0  0  0  0  0
    5.8240    0.7510   17.4460 N   0  0  0  0  0  0  0  0  0  0  0  0
    6.3410    0.0700   18.4860 C   0  0  0  0  0  0  0  0  0  0  0  0
    5.9810    0.2950   19.8330 C   0  0  0  0  0  0  0  0  0  0  0  0
    6.6990   -0.3500   20.8800 N   0  0  0  0  0  0  0  0  0  0  0  0
    8.0670   -0.2700   20.9660 C   0  0  0  0  0  0  0  0  0  0  0  0
    8.7420    0.1180   20.0330 O   0  0  0  0  0  0  0  0  0  0  0  0
    8.5980   -0.5590   22.1930 N   0  0  0  0  0  0  0  0  0  0  0  0
    9.9400   -0.2690   22.5270 C   0  0  0  0  0  0  0  0  0  0  0  0
   10.9870   -0.9710   21.9100 C   0  0  0  0  0  0  0  0  0  0  0  0
   12.3210   -0.5840   22.1190 C   0  0  0  0  0  0  0  0  0  0  0  0
   12.6090    0.5090   22.9530 C   0  0  0  0  0  0  0  0  0  0  0  0
   11.5630    1.2070   23.5780 C   0  0  0  0  0  0  0  0  0  0  0  0
   10.2300    0.8150   23.3700 C   0  0  0  0  0  0  0  0  0  0  0  0
  1  2  1  0
  2  3  1  0
  3  4  1  0
  4  5  2  0
  4  6  1  0
  6  7  1  0
  7  8  2  0
  7 12  1  0
  8  9  1  0
  9 10  2  0
 10 11  1  0
 11 12  2  0
 12 13  1  0
 13 14  1  0
 14 15  2  0
 14 16  1  0
 16 17  1  0
 17 18  2  0
 17 22  1  0
 18 19  1  0
 19 20  2  0
 20 21  1  0
 21 22  2  0
M  END
