WPC0285_minimised.pdb
     RDKit          3D

 24 26  0  0  0  0  0  0  0  0999 V2000
    5.8090   -5.0650   25.2670 C   0  0  0  0  0  0  0  0  0  0  0  0
    4.9610   -4.2910   24.3960 O   0  0  0  0  0  0  0  0  0  0  0  0
    5.5240   -3.3260   23.6050 C   0  0  0  0  0  0  0  0  0  0  0  0
    6.3150   -3.6860   22.5040 C   0  0  0  0  0  0  0  0  0  0  0  0
    6.8830   -2.6850   21.6970 C   0  0  0  0  0  0  0  0  0  0  0  0
    6.6500   -1.3280   21.9820 C   0  0  0  0  0  0  0  0  0  0  0  0
    7.2320   -0.3200   21.1670 N   0  0  0  0  0  0  0  0  0  0  0  0
    8.5480    0.1230   21.2750 C   0  0  0  0  0  0  0  0  0  0  0  0
    8.9930    0.9810   20.5410 O   0  0  0  0  0  0  0  0  0  0  0  0
    9.3300   -0.4850   22.2270 N   0  0  0  0  0  0  0  0  0  0  0  0
   10.7080   -0.2280   22.4070 C   0  0  0  0  0  0  0  0  0  0  0  0
   11.6530   -1.2050   22.0590 C   0  0  0  0  0  0  0  0  0  0  0  0
   13.0260   -0.9140   22.1250 C   0  0  0  0  0  0  0  0  0  0  0  0
   13.4540    0.3470   22.5740 C   0  0  0  0  0  0  0  0  0  0  0  0
   12.5090    1.3180   22.9410 C   0  0  0  0  0  0  0  0  0  0  0  0
   11.1380    1.0330   22.8480 C   0  0  0  0  0  0  0  0  0  0  0  0
    6.3990    0.1970   20.1320 C   0  0  0  0  0  0  0  0  0  0  0  0
    5.3730    1.1140   20.4120 C   0  0  0  0  0  0  0  0  0  0  0  0
    4.6910    1.6890   19.3280 C   0  0  0  0  0  0  0  0  0  0  0  0
    5.0410    1.3320   18.0170 C   0  0  0  0  0  0  0  0  0  0  0  0
    6.0070    0.4290   17.7350 N   0  0  0  0  0  0  0  0  0  0  0  0
    6.6860   -0.0900   18.7810 C   0  0  0  0  0  0  0  0  0  0  0  0
    5.8620   -0.9730   23.0900 C   0  0  0  0  0  0  0  0  0  0  0  0
    5.3000   -1.9740   23.9010 C   0  0  0  0  0  0  0  0  0  0  0  0
  1  2  1  0
  2  3  1  0
  3 24  2  0
  3  4  1  0
  4  5  2  0
  5  6  1  0
  6  7  1  0
  6 23  2  0
  7 17  1  0
  7  8  1  0
  8  9  2  0
  8 10  1  0
 10 11  1  0
 11 12  2  0
 11 16  1  0
 12 13  1  0
 13 14  2  0
 14 15  1  0
 15 16  2  0
 17 18  2  0
 17 22  1  0
 18 19  1  0
 19 20  2  0
 20 21  1  0
 21 22  2  0
 23 24  1  0
M  END
