WPC0422_minimised.pdb
     RDKit          3D

 24 25  0  0  0  0  0  0  0  0999 V2000
   10.0270    5.6460   23.4050 C   0  0  0  0  0  0  0  0  0  0  0  0
   11.1420    4.5820   23.4070 C   0  0  0  0  0  0  0  0  0  0  0  0
   12.4730    5.1390   22.8430 C   0  0  0  0  0  0  0  0  0  0  0  0
   13.6240    4.1470   22.8410 C   0  0  0  0  0  0  0  0  0  0  0  0
   14.6860    4.3900   23.3800 O   0  0  0  0  0  0  0  0  0  0  0  0
   13.3750    2.9570   22.2060 N   0  0  0  0  0  0  0  0  0  0  0  0
   14.2790    1.7960   22.2230 C   0  0  0  0  0  0  0  0  0  0  0  0
   13.8080    0.7050   23.2000 C   0  0  0  0  0  0  0  0  0  0  0  0
   12.3560    0.3250   22.9840 C   0  0  0  0  0  0  0  0  0  0  0  0
   12.0100   -0.6100   21.9960 C   0  0  0  0  0  0  0  0  0  0  0  0
   10.6600   -0.8830   21.7420 C   0  0  0  0  0  0  0  0  0  0  0  0
    9.6550   -0.2120   22.4550 C   0  0  0  0  0  0  0  0  0  0  0  0
    8.3100   -0.3270   22.0540 N   0  0  0  0  0  0  0  0  0  0  0  0
    7.8730   -0.0220   20.7940 C   0  0  0  0  0  0  0  0  0  0  0  0
    8.6140    0.2260   19.8620 O   0  0  0  0  0  0  0  0  0  0  0  0
    6.5120    0.0230   20.6840 N   0  0  0  0  0  0  0  0  0  0  0  0
    5.8220    0.5670   19.5740 C   0  0  0  0  0  0  0  0  0  0  0  0
    4.8430    1.5420   19.7980 C   0  0  0  0  0  0  0  0  0  0  0  0
    4.2910    2.1770   18.6790 C   0  0  0  0  0  0  0  0  0  0  0  0
    4.7440    1.8380   17.3960 C   0  0  0  0  0  0  0  0  0  0  0  0
    5.6460    0.8580   17.1670 N   0  0  0  0  0  0  0  0  0  0  0  0
    6.1820    0.2510   18.2460 C   0  0  0  0  0  0  0  0  0  0  0  0
    9.9980    0.6760   23.4830 C   0  0  0  0  0  0  0  0  0  0  0  0
   11.3480    0.9390   23.7500 C   0  0  0  0  0  0  0  0  0  0  0  0
  1  2  1  0
  2  3  1  0
  3  4  1  0
  4  5  2  0
  4  6  1  0
  6  7  1  0
  7  8  1  0
  8  9  1  0
  9 24  2  0
  9 10  1  0
 10 11  2  0
 11 12  1  0
 12 13  1  0
 12 23  2  0
 13 14  1  0
 14 15  2  0
 14 16  1  0
 16 17  1  0
 17 18  2  0
 17 22  1  0
 18 19  1  0
 19 20  2  0
 20 21  1  0
 21 22  2  0
 23 24  1  0
M  END
