WPC0558_minimised.pdb
     RDKit          3D

 23 24  0  0  0  0  0  0  0  0999 V2000
    9.8250    4.9420   23.2820 C   0  0  0  0  0  0  0  0  0  0  0  0
   10.7340    4.9610   24.5230 C   0  0  0  0  0  0  0  0  0  0  0  0
   12.4830    5.3890   24.1190 S   0  0  0  0  0  0  0  0  0  0  0  0
   12.9730    4.4150   22.6710 C   0  0  0  0  0  0  0  0  0  0  0  0
   13.9130    5.1070   21.4890 S   0  0  0  0  0  0  0  0  0  0  0  0
   12.7000    3.0590   22.6300 N   0  0  0  0  0  0  0  0  0  0  0  0
   12.4300    2.1540   23.7590 C   0  0  0  0  0  0  0  0  0  0  0  0
   11.2900    1.1880   23.5000 C   0  0  0  0  0  0  0  0  0  0  0  0
   11.4260    0.1730   22.5380 C   0  0  0  0  0  0  0  0  0  0  0  0
   10.3160   -0.6120   22.1840 C   0  0  0  0  0  0  0  0  0  0  0  0
    9.0730   -0.3870   22.7990 C   0  0  0  0  0  0  0  0  0  0  0  0
    7.8760   -0.9200   22.2770 N   0  0  0  0  0  0  0  0  0  0  0  0
    7.5200   -0.7450   20.9680 C   0  0  0  0  0  0  0  0  0  0  0  0
    8.3070   -0.6700   20.0490 O   0  0  0  0  0  0  0  0  0  0  0  0
    6.1800   -0.5360   20.7970 N   0  0  0  0  0  0  0  0  0  0  0  0
    5.6320    0.1580   19.6890 C   0  0  0  0  0  0  0  0  0  0  0  0
    4.7850    1.2490   19.9300 C   0  0  0  0  0  0  0  0  0  0  0  0
    4.3740    2.0150   18.8300 C   0  0  0  0  0  0  0  0  0  0  0  0
    4.8210    1.6780   17.5440 C   0  0  0  0  0  0  0  0  0  0  0  0
    5.6130    0.6090   17.3000 N   0  0  0  0  0  0  0  0  0  0  0  0
    6.0160   -0.1230   18.3580 C   0  0  0  0  0  0  0  0  0  0  0  0
    8.9720    0.5360   23.8470 C   0  0  0  0  0  0  0  0  0  0  0  0
   10.0790    1.3140   24.2030 C   0  0  0  0  0  0  0  0  0  0  0  0
  1  2  1  0
  2  3  1  0
  3  4  1  0
  4  5  2  0
  4  6  1  0
  6  7  1  0
  7  8  1  0
  8 23  2  0
  8  9  1  0
  9 10  2  0
 10 11  1  0
 11 12  1  0
 11 22  2  0
 12 13  1  0
 13 14  2  0
 13 15  1  0
 15 16  1  0
 16 17  2  0
 16 21  1  0
 17 18  1  0
 18 19  2  0
 19 20  1  0
 20 21  2  0
 22 23  1  0
M  END
