WPC0492_minimised.pdb
     RDKit          3D

 22 23  0  0  0  0  0  0  0  0999 V2000
   14.4390    4.6630   23.3310 N   0  0  0  0  0  0  0  0  0  0  0  0
   13.4410    4.2250   22.7180 C   0  0  0  0  0  0  0  0  0  0  0  0
   12.7100    5.0430   21.9690 N   0  0  0  0  0  0  0  0  0  0  0  0
   13.2810    2.9540   22.3050 N   0  0  0  0  0  0  0  0  0  0  0  0
   14.2600    1.8690   22.4940 C   0  0  0  0  0  0  0  0  0  0  0  0
   13.7030    0.6970   23.3250 C   0  0  0  0  0  0  0  0  0  0  0  0
   12.2510    0.3630   23.0400 C   0  0  0  0  0  0  0  0  0  0  0  0
   11.9160   -0.6100   22.0850 C   0  0  0  0  0  0  0  0  0  0  0  0
   10.5690   -0.8710   21.8040 C   0  0  0  0  0  0  0  0  0  0  0  0
    9.5580   -0.1590   22.4640 C   0  0  0  0  0  0  0  0  0  0  0  0
    8.2190   -0.2870   22.0510 N   0  0  0  0  0  0  0  0  0  0  0  0
    7.8000   -0.0400   20.7730 C   0  0  0  0  0  0  0  0  0  0  0  0
    8.5510    0.1360   19.8330 O   0  0  0  0  0  0  0  0  0  0  0  0
    6.4410    0.0480   20.6620 N   0  0  0  0  0  0  0  0  0  0  0  0
    5.7620    0.5930   19.5470 C   0  0  0  0  0  0  0  0  0  0  0  0
    4.7930    1.5800   19.7650 C   0  0  0  0  0  0  0  0  0  0  0  0
    4.2480    2.2130   18.6420 C   0  0  0  0  0  0  0  0  0  0  0  0
    4.6930    1.8580   17.3610 C   0  0  0  0  0  0  0  0  0  0  0  0
    5.5850    0.8660   17.1390 N   0  0  0  0  0  0  0  0  0  0  0  0
    6.1180    0.2630   18.2210 C   0  0  0  0  0  0  0  0  0  0  0  0
    9.8870    0.7720   23.4570 C   0  0  0  0  0  0  0  0  0  0  0  0
   11.2330    1.0290   23.7490 C   0  0  0  0  0  0  0  0  0  0  0  0
  1  2  2  0
  2  3  1  0
  2  4  1  0
  4  5  1  0
  5  6  1  0
  6  7  1  0
  7 22  2  0
  7  8  1  0
  8  9  2  0
  9 10  1  0
 10 11  1  0
 10 21  2  0
 11 12  1  0
 12 13  2  0
 12 14  1  0
 14 15  1  0
 15 16  2  0
 15 20  1  0
 16 17  1  0
 17 18  2  0
 18 19  1  0
 19 20  2  0
 21 22  1  0
M  END
