WPC0618_minimised.pdb
     RDKit          3D

 24 26  0  0  0  0  0  0  0  0999 V2000
    8.6240    0.3000   19.9830 O   0  0  0  0  0  0  0  0  0  0  0  0
    7.9060   -0.0290   20.9070 C   0  0  0  0  0  0  0  0  0  0  0  0
    8.3540   -0.3570   22.1590 N   0  0  0  0  0  0  0  0  0  0  0  0
    9.6820   -0.1780   22.6040 C   0  0  0  0  0  0  0  0  0  0  0  0
   10.7590   -0.6020   21.8100 C   0  0  0  0  0  0  0  0  0  0  0  0
   12.0720   -0.2510   22.1500 C   0  0  0  0  0  0  0  0  0  0  0  0
   12.3060    0.5080   23.3050 C   0  0  0  0  0  0  0  0  0  0  0  0
   13.9460    1.0790   23.6550 S   0  0  0  0  0  0  0  0  0  0  0  0
   14.1720    2.5440   22.5520 C   0  0  0  0  0  0  0  0  0  0  0  0
   12.9730    3.4570   22.6910 C   0  0  0  0  0  0  0  0  0  0  0  0
   13.0440    4.7310   23.4960 C   0  0  0  0  0  0  0  0  0  0  0  0
   11.6230    5.2050   23.3150 C   0  0  0  0  0  0  0  0  0  0  0  0
   11.1060    6.1810   23.8240 O   0  0  0  0  0  0  0  0  0  0  0  0
   11.0360    4.3250   22.4520 N   0  0  0  0  0  0  0  0  0  0  0  0
   11.8660    3.3140   22.0660 N   0  0  0  0  0  0  0  0  0  0  0  0
   11.2380    0.8640   24.1460 C   0  0  0  0  0  0  0  0  0  0  0  0
    9.9240    0.5230   23.7940 C   0  0  0  0  0  0  0  0  0  0  0  0
    6.5450   -0.0660   20.7890 N   0  0  0  0  0  0  0  0  0  0  0  0
    5.8340    0.4500   19.6790 C   0  0  0  0  0  0  0  0  0  0  0  0
    4.8530    1.4250   19.8960 C   0  0  0  0  0  0  0  0  0  0  0  0
    4.2760    2.0250   18.7710 C   0  0  0  0  0  0  0  0  0  0  0  0
    4.6990    1.6460   17.4890 C   0  0  0  0  0  0  0  0  0  0  0  0
    5.6100    0.6720   17.2690 N   0  0  0  0  0  0  0  0  0  0  0  0
    6.1780    0.1060   18.3530 C   0  0  0  0  0  0  0  0  0  0  0  0
  1  2  2  0
  2  3  1  0
  2 18  1  0
  3  4  1  0
  4  5  2  0
  4 17  1  0
  5  6  1  0
  6  7  2  0
  7  8  1  0
  7 16  1  0
  8  9  1  0
  9 10  1  0
 10 11  1  0
 10 15  2  0
 11 12  1  0
 12 13  2  0
 12 14  1  0
 14 15  1  0
 16 17  2  0
 18 19  1  0
 19 20  2  0
 19 24  1  0
 20 21  1  0
 21 22  2  0
 22 23  1  0
 23 24  2  0
M  END
