WPC0459_minimised.pdb
     RDKit          3D

 22 23  0  0  0  0  0  0  0  0999 V2000
   14.0700    5.5610   21.5510 C   0  0  0  0  0  0  0  0  0  0  0  0
   13.1430    5.0530   22.6710 C   0  0  0  0  0  0  0  0  0  0  0  0
   11.7270    4.7110   22.1720 C   0  0  0  0  0  0  0  0  0  0  0  0
   13.7500    3.8460   23.4010 C   0  0  0  0  0  0  0  0  0  0  0  0
   14.1000    2.6320   22.5190 C   0  0  0  0  0  0  0  0  0  0  0  0
   14.1250    1.0550   23.4700 S   0  0  0  0  0  0  0  0  0  0  0  0
   12.4400    0.5340   23.2730 C   0  0  0  0  0  0  0  0  0  0  0  0
   12.1350   -0.3920   22.2660 C   0  0  0  0  0  0  0  0  0  0  0  0
   10.7970   -0.6850   21.9710 C   0  0  0  0  0  0  0  0  0  0  0  0
    9.7660   -0.0520   22.6820 C   0  0  0  0  0  0  0  0  0  0  0  0
    8.4290   -0.1950   22.2580 N   0  0  0  0  0  0  0  0  0  0  0  0
    7.9900    0.1020   20.9950 C   0  0  0  0  0  0  0  0  0  0  0  0
    8.7200    0.4090   20.0730 O   0  0  0  0  0  0  0  0  0  0  0  0
    6.6290    0.0530   20.8650 N   0  0  0  0  0  0  0  0  0  0  0  0
    5.9130    0.5130   19.7340 C   0  0  0  0  0  0  0  0  0  0  0  0
    4.8930    1.4540   19.9190 C   0  0  0  0  0  0  0  0  0  0  0  0
    4.2930    1.9950   18.7770 C   0  0  0  0  0  0  0  0  0  0  0  0
    4.7240    1.5840   17.5070 C   0  0  0  0  0  0  0  0  0  0  0  0
    5.6700    0.6370   17.3170 N   0  0  0  0  0  0  0  0  0  0  0  0
    6.2680    0.1370   18.4190 C   0  0  0  0  0  0  0  0  0  0  0  0
   10.0720    0.8150   23.7420 C   0  0  0  0  0  0  0  0  0  0  0  0
   11.4120    1.1080   24.0390 C   0  0  0  0  0  0  0  0  0  0  0  0
  1  2  1  0
  2  3  1  0
  2  4  1  0
  4  5  1  0
  5  6  1  0
  6  7  1  0
  7 22  2  0
  7  8  1  0
  8  9  2  0
  9 10  1  0
 10 11  1  0
 10 21  2  0
 11 12  1  0
 12 13  2  0
 12 14  1  0
 14 15  1  0
 15 16  2  0
 15 20  1  0
 16 17  1  0
 17 18  2  0
 18 19  1  0
 19 20  2  0
 21 22  1  0
M  END
