WPC0255_minimised.pdb
     RDKit          3D

 20 21  0  0  0  0  0  0  0  0999 V2000
    5.9880   -3.4960   23.1710 C   0  0  0  0  0  0  0  0  0  0  0  0
    6.3770   -2.7770   21.8910 C   0  0  0  0  0  0  0  0  0  0  0  0
    6.3860   -3.3470   20.8130 O   0  0  0  0  0  0  0  0  0  0  0  0
    6.6560   -1.4370   22.0420 N   0  0  0  0  0  0  0  0  0  0  0  0
    7.1950   -0.5850   21.0360 N   0  0  0  0  0  0  0  0  0  0  0  0
    8.5260   -0.1440   21.0750 C   0  0  0  0  0  0  0  0  0  0  0  0
    8.9340    0.7120   20.3160 O   0  0  0  0  0  0  0  0  0  0  0  0
    9.3430   -0.7000   22.0320 N   0  0  0  0  0  0  0  0  0  0  0  0
   10.6970   -0.3540   22.2420 C   0  0  0  0  0  0  0  0  0  0  0  0
   11.7030   -1.3000   22.0060 C   0  0  0  0  0  0  0  0  0  0  0  0
   13.0560   -0.9380   22.1180 C   0  0  0  0  0  0  0  0  0  0  0  0
   13.4010    0.3640   22.5180 C   0  0  0  0  0  0  0  0  0  0  0  0
   12.3940    1.3060   22.7830 C   0  0  0  0  0  0  0  0  0  0  0  0
   11.0430    0.9500   22.6320 C   0  0  0  0  0  0  0  0  0  0  0  0
    6.3010   -0.0390   20.0740 C   0  0  0  0  0  0  0  0  0  0  0  0
    5.4100    0.9870   20.4230 C   0  0  0  0  0  0  0  0  0  0  0  0
    4.7140    1.6350   19.3900 C   0  0  0  0  0  0  0  0  0  0  0  0
    4.9440    1.2600   18.0580 C   0  0  0  0  0  0  0  0  0  0  0  0
    5.7800    0.2560   17.7160 N   0  0  0  0  0  0  0  0  0  0  0  0
    6.4560   -0.3550   18.7100 C   0  0  0  0  0  0  0  0  0  0  0  0
  1  2  1  0
  2  4  1  0
  2  3  2  0
  4  5  1  0
  5  6  1  0
  5 15  1  0
  6  8  1  0
  6  7  2  0
  8  9  1  0
  9 10  2  0
  9 14  1  0
 10 11  1  0
 11 12  2  0
 12 13  1  0
 13 14  2  0
 15 16  2  0
 15 20  1  0
 16 17  1  0
 17 18  2  0
 18 19  1  0
 19 20  2  0
M  END
