WPC0378_minimised.pdb
     RDKit          3D

 24 26  0  0  0  0  0  0  0  0999 V2000
   12.6080    6.7030   24.5030 N   0  0  0  0  0  0  0  0  0  0  0  0
   12.5380    5.5180   23.8530 C   0  0  0  0  0  0  0  0  0  0  0  0
   11.6930    4.6170   24.2820 N   0  0  0  0  0  0  0  0  0  0  0  0
   11.9610    3.3890   23.7320 N   0  0  0  0  0  0  0  0  0  0  0  0
   13.0350    3.4020   22.9600 C   0  0  0  0  0  0  0  0  0  0  0  0
   13.6690    2.1690   22.3730 C   0  0  0  0  0  0  0  0  0  0  0  0
   13.6940    0.7030   23.4890 S   0  0  0  0  0  0  0  0  0  0  0  0
   12.0540    0.0750   23.2470 C   0  0  0  0  0  0  0  0  0  0  0  0
   11.8090   -0.7690   22.1560 C   0  0  0  0  0  0  0  0  0  0  0  0
   10.4910   -1.1210   21.8380 C   0  0  0  0  0  0  0  0  0  0  0  0
    9.4230   -0.6070   22.5890 C   0  0  0  0  0  0  0  0  0  0  0  0
    8.1020   -0.7210   22.1100 N   0  0  0  0  0  0  0  0  0  0  0  0
    7.7250   -0.3530   20.8450 C   0  0  0  0  0  0  0  0  0  0  0  0
    8.5010   -0.1120   19.9390 O   0  0  0  0  0  0  0  0  0  0  0  0
    6.3710   -0.2280   20.7030 N   0  0  0  0  0  0  0  0  0  0  0  0
    5.7420    0.3940   19.5970 C   0  0  0  0  0  0  0  0  0  0  0  0
    4.8000    1.4020   19.8320 C   0  0  0  0  0  0  0  0  0  0  0  0
    4.3050    2.1020   18.7240 C   0  0  0  0  0  0  0  0  0  0  0  0
    4.7740    1.7890   17.4400 C   0  0  0  0  0  0  0  0  0  0  0  0
    5.6460    0.7840   17.1990 N   0  0  0  0  0  0  0  0  0  0  0  0
    6.1290    0.1170   18.2670 C   0  0  0  0  0  0  0  0  0  0  0  0
    9.6770    0.1580   23.7360 C   0  0  0  0  0  0  0  0  0  0  0  0
   10.9980    0.4880   24.0740 C   0  0  0  0  0  0  0  0  0  0  0  0
   13.7590    4.9720   22.7440 S   0  0  0  0  0  0  0  0  0  0  0  0
  1  2  1  0
  2 24  1  0
  2  3  2  0
  3  4  1  0
  4  5  2  0
  5  6  1  0
  5 24  1  0
  6  7  1  0
  7  8  1  0
  8 23  1  0
  8  9  2  0
  9 10  1  0
 10 11  2  0
 11 12  1  0
 11 22  1  0
 12 13  1  0
 13 14  2  0
 13 15  1  0
 15 16  1  0
 16 17  2  0
 16 21  1  0
 17 18  1  0
 18 19  2  0
 19 20  1  0
 20 21  2  0
 22 23  2  0
M  END
