WPC0006_minimised.pdb
     RDKit          3D

 19 20  0  0  0  0  0  0  0  0999 V2000
    7.2600    3.3620   22.1790 C   0  0  0  0  0  0  0  0  0  0  0  0
    5.8270    3.3840   22.0460 O   0  0  0  0  0  0  0  0  0  0  0  0
    5.1780    2.1130   21.8640 C   0  0  0  0  0  0  0  0  0  0  0  0
    5.4310    1.5310   20.4710 C   0  0  0  0  0  0  0  0  0  0  0  0
    4.8080    2.0970   19.3430 C   0  0  0  0  0  0  0  0  0  0  0  0
    5.0840    1.5970   18.0580 C   0  0  0  0  0  0  0  0  0  0  0  0
    5.9130    0.5540   17.8330 N   0  0  0  0  0  0  0  0  0  0  0  0
    6.5320    0.0290   18.9090 C   0  0  0  0  0  0  0  0  0  0  0  0
    6.3190    0.4640   20.2380 C   0  0  0  0  0  0  0  0  0  0  0  0
    7.1270   -0.0550   21.2850 N   0  0  0  0  0  0  0  0  0  0  0  0
    8.4790    0.1560   21.3240 C   0  0  0  0  0  0  0  0  0  0  0  0
    9.0400    0.7530   20.4320 O   0  0  0  0  0  0  0  0  0  0  0  0
    9.1450   -0.3300   22.4160 N   0  0  0  0  0  0  0  0  0  0  0  0
   10.5350   -0.1540   22.5890 C   0  0  0  0  0  0  0  0  0  0  0  0
   11.4320   -1.1190   22.1040 C   0  0  0  0  0  0  0  0  0  0  0  0
   12.8150   -0.8700   22.1290 C   0  0  0  0  0  0  0  0  0  0  0  0
   13.3000    0.3420   22.6490 C   0  0  0  0  0  0  0  0  0  0  0  0
   12.4020    1.3050   23.1350 C   0  0  0  0  0  0  0  0  0  0  0  0
   11.0200    1.0580   23.1040 C   0  0  0  0  0  0  0  0  0  0  0  0
  1  2  1  0
  2  3  1  0
  3  4  1  0
  4  5  2  0
  4  9  1  0
  5  6  1  0
  6  7  2  0
  7  8  1  0
  8  9  2  0
  9 10  1  0
 10 11  1  0
 11 12  2  0
 11 13  1  0
 13 14  1  0
 14 15  2  0
 14 19  1  0
 15 16  1  0
 16 17  2  0
 17 18  1  0
 18 19  2  0
M  END
