WPC0088_minimised.pdb
     RDKit          3D

 21 22  0  0  0  0  0  0  0  0999 V2000
    7.2930    1.4670   24.0040 C   0  0  0  0  0  0  0  0  0  0  0  0
    6.0460    0.7610   23.8290 O   0  0  0  0  0  0  0  0  0  0  0  0
    5.4910    0.4970   22.6090 C   0  0  0  0  0  0  0  0  0  0  0  0
    4.6010   -0.3240   22.4640 O   0  0  0  0  0  0  0  0  0  0  0  0
    6.0560    1.1890   21.5690 N   0  0  0  0  0  0  0  0  0  0  0  0
    5.9220    0.8650   20.2090 C   0  0  0  0  0  0  0  0  0  0  0  0
    4.9990    1.5330   19.4020 C   0  0  0  0  0  0  0  0  0  0  0  0
    4.9570    1.2460   18.0320 C   0  0  0  0  0  0  0  0  0  0  0  0
    5.7500    0.3130   17.4610 N   0  0  0  0  0  0  0  0  0  0  0  0
    6.6350   -0.3280   18.2490 C   0  0  0  0  0  0  0  0  0  0  0  0
    6.7790   -0.0810   19.6240 C   0  0  0  0  0  0  0  0  0  0  0  0
    7.8360   -0.6930   20.3680 N   0  0  0  0  0  0  0  0  0  0  0  0
    8.8830   -0.0120   20.9420 C   0  0  0  0  0  0  0  0  0  0  0  0
    8.9700    1.1990   20.9020 O   0  0  0  0  0  0  0  0  0  0  0  0
    9.8250   -0.8180   21.5200 N   0  0  0  0  0  0  0  0  0  0  0  0
   11.1020   -0.4130   21.9730 C   0  0  0  0  0  0  0  0  0  0  0  0
   12.2030   -1.2130   21.6460 C   0  0  0  0  0  0  0  0  0  0  0  0
   13.5020   -0.8160   21.9920 C   0  0  0  0  0  0  0  0  0  0  0  0
   13.7040    0.3860   22.6880 C   0  0  0  0  0  0  0  0  0  0  0  0
   12.6030    1.1810   23.0400 C   0  0  0  0  0  0  0  0  0  0  0  0
   11.3040    0.7820   22.6870 C   0  0  0  0  0  0  0  0  0  0  0  0
  1  2  1  0
  2  3  1  0
  3  4  2  0
  3  5  1  0
  5  6  1  0
  6  7  2  0
  6 11  1  0
  7  8  1  0
  8  9  2  0
  9 10  1  0
 10 11  2  0
 11 12  1  0
 12 13  1  0
 13 14  2  0
 13 15  1  0
 15 16  1  0
 16 17  2  0
 16 21  1  0
 17 18  1  0
 18 19  2  0
 19 20  1  0
 20 21  2  0
M  END
