WPC0755_minimised.pdb
     RDKit          3D

 22 23  0  0  0  0  0  0  0  0999 V2000
    9.1360    0.4900   20.6680 O   0  0  0  0  0  0  0  0  0  0  0  0
    8.5320   -0.4180   21.1790 C   0  0  0  0  0  0  0  0  0  0  0  0
    9.0160   -1.2200   22.1600 N   0  0  0  0  0  0  0  0  0  0  0  0
   10.2370   -0.7990   22.7270 C   0  0  0  0  0  0  0  0  0  0  0  0
   11.3640   -1.2010   22.0670 C   0  0  0  0  0  0  0  0  0  0  0  0
   12.5710   -0.5460   22.3740 C   0  0  0  0  0  0  0  0  0  0  0  0
   12.5460    0.4700   23.3050 C   0  0  0  0  0  0  0  0  0  0  0  0
   13.8970    1.0560   23.7460 C   0  0  0  0  0  0  0  0  0  0  0  0
   14.5810    1.9470   22.7050 C   0  0  0  0  0  0  0  0  0  0  0  0
   13.5610    3.3250   22.3050 P   0  0  0  0  0  0  0  0  0  0  0  0
   12.7380    4.4170   23.4200 O   0  0  0  0  0  0  0  0  0  0  0  0
   14.1250    4.4120   21.3510 O   0  0  0  0  0  0  0  0  0  0  0  0
   13.8560    4.1930   23.5550 O   0  0  0  0  0  0  0  0  0  0  0  0
   11.4390    0.6960   24.1420 C   0  0  0  0  0  0  0  0  0  0  0  0
   10.2640    0.0730   23.7860 C   0  0  0  0  0  0  0  0  0  0  0  0
    7.2100   -0.6590   20.8870 N   0  0  0  0  0  0  0  0  0  0  0  0
    6.5310   -0.0190   19.8320 C   0  0  0  0  0  0  0  0  0  0  0  0
    5.3900    0.7290   20.1200 C   0  0  0  0  0  0  0  0  0  0  0  0
    4.8200    1.4590   19.0800 C   0  0  0  0  0  0  0  0  0  0  0  0
    5.3590    1.3580   17.7970 C   0  0  0  0  0  0  0  0  0  0  0  0
    6.4480    0.6240   17.5120 N   0  0  0  0  0  0  0  0  0  0  0  0
    7.0480   -0.0160   18.5230 C   0  0  0  0  0  0  0  0  0  0  0  0
  1  2  2  0
  2  3  1  0
  2 16  1  0
  3  4  1  0
  4  5  2  0
  4 15  1  0
  5  6  1  0
  6  7  2  0
  7  8  1  0
  7 14  1  0
  8  9  1  0
  9 10  1  0
 10 11  2  0
 10 12  1  0
 10 13  1  0
 14 15  2  0
 16 17  1  0
 17 18  2  0
 17 22  1  0
 18 19  1  0
 19 20  2  0
 20 21  1  0
 21 22  2  0
M  END
