WPC0850_minimised.pdb
     RDKit          3D

 23 25  0  0  0  0  0  0  0  0999 V2000
    8.8500    0.3190   20.0070 O   0  0  0  0  0  0  0  0  0  0  0  0
    8.2060   -0.0260   20.9770 C   0  0  0  0  0  0  0  0  0  0  0  0
    8.7610   -0.2620   22.2100 N   0  0  0  0  0  0  0  0  0  0  0  0
   10.0710    0.1490   22.5420 C   0  0  0  0  0  0  0  0  0  0  0  0
   11.1570   -0.2330   21.7400 C   0  0  0  0  0  0  0  0  0  0  0  0
   12.3880    0.4290   21.8570 C   0  0  0  0  0  0  0  0  0  0  0  0
   12.5370    1.4680   22.7890 C   0  0  0  0  0  0  0  0  0  0  0  0
   13.7840    2.3340   22.7590 C   0  0  0  0  0  0  0  0  0  0  0  0
   13.4500    4.0030   22.0440 S   0  0  0  0  0  0  0  0  0  0  0  0
   12.3820    4.7670   23.1980 C   0  0  0  0  0  0  0  0  0  0  0  0
   11.1380    5.1730   22.8230 N   0  0  0  0  0  0  0  0  0  0  0  0
   10.6340    5.8510   23.9110 C   0  0  0  0  0  0  0  0  0  0  0  0
   11.6300    5.8250   24.8640 C   0  0  0  0  0  0  0  0  0  0  0  0
   12.7300    5.1340   24.4080 N   0  0  0  0  0  0  0  0  0  0  0  0
   11.4930    1.7450   23.6920 C   0  0  0  0  0  0  0  0  0  0  0  0
   10.2570    1.0950   23.5610 C   0  0  0  0  0  0  0  0  0  0  0  0
    6.8430   -0.1420   20.9230 N   0  0  0  0  0  0  0  0  0  0  0  0
    6.0750    0.3500   19.8370 C   0  0  0  0  0  0  0  0  0  0  0  0
    5.1180    1.3440   20.0740 C   0  0  0  0  0  0  0  0  0  0  0  0
    4.5140    1.9460   18.9620 C   0  0  0  0  0  0  0  0  0  0  0  0
    4.8880    1.5510   17.6690 C   0  0  0  0  0  0  0  0  0  0  0  0
    5.7710    0.5560   17.4300 N   0  0  0  0  0  0  0  0  0  0  0  0
    6.3650   -0.0110   18.5020 C   0  0  0  0  0  0  0  0  0  0  0  0
  1  2  2  0
  2  3  1  0
  2 17  1  0
  3  4  1  0
  4  5  2  0
  4 16  1  0
  5  6  1  0
  6  7  2  0
  7  8  1  0
  7 15  1  0
  8  9  1  0
  9 10  1  0
 10 11  1  0
 10 14  2  0
 11 12  1  0
 12 13  2  0
 13 14  1  0
 15 16  2  0
 17 18  1  0
 18 19  2  0
 18 23  1  0
 19 20  1  0
 20 21  2  0
 21 22  1  0
 22 23  2  0
M  END
