WPC0291_minimised.pdb
     RDKit          3D

 22 24  0  0  0  0  0  0  0  0999 V2000
    8.9050    0.9460   20.5000 O   0  0  0  0  0  0  0  0  0  0  0  0
    8.4620    0.1070   21.2580 C   0  0  0  0  0  0  0  0  0  0  0  0
    9.2470   -0.4710   22.2260 N   0  0  0  0  0  0  0  0  0  0  0  0
   10.6250   -0.2090   22.3980 C   0  0  0  0  0  0  0  0  0  0  0  0
   11.5720   -1.1840   22.0500 C   0  0  0  0  0  0  0  0  0  0  0  0
   12.9450   -0.8910   22.1140 C   0  0  0  0  0  0  0  0  0  0  0  0
   13.3720    0.3700   22.5620 C   0  0  0  0  0  0  0  0  0  0  0  0
   12.4260    1.3400   22.9280 C   0  0  0  0  0  0  0  0  0  0  0  0
   11.0540    1.0540   22.8360 C   0  0  0  0  0  0  0  0  0  0  0  0
    7.1480   -0.3450   21.1610 N   0  0  0  0  0  0  0  0  0  0  0  0
    6.5910   -1.3650   21.9780 C   0  0  0  0  0  0  0  0  0  0  0  0
    6.9280   -2.7110   21.7500 C   0  0  0  0  0  0  0  0  0  0  0  0
    6.4230   -3.7230   22.5830 C   0  0  0  0  0  0  0  0  0  0  0  0
    5.5790   -3.3890   23.6540 C   0  0  0  0  0  0  0  0  0  0  0  0
    5.2480   -2.0450   23.8940 C   0  0  0  0  0  0  0  0  0  0  0  0
    5.7490   -1.0350   23.0540 C   0  0  0  0  0  0  0  0  0  0  0  0
    6.3080    0.1590   20.1230 C   0  0  0  0  0  0  0  0  0  0  0  0
    5.2790    1.0770   20.3940 C   0  0  0  0  0  0  0  0  0  0  0  0
    4.6110    1.6580   19.3040 C   0  0  0  0  0  0  0  0  0  0  0  0
    4.9740    1.3030   17.9960 C   0  0  0  0  0  0  0  0  0  0  0  0
    5.9360    0.3940   17.7220 N   0  0  0  0  0  0  0  0  0  0  0  0
    6.6060   -0.1240   18.7730 C   0  0  0  0  0  0  0  0  0  0  0  0
  1  2  2  0
  2  3  1  0
  2 10  1  0
  3  4  1  0
  4  5  2  0
  4  9  1  0
  5  6  1  0
  6  7  2  0
  7  8  1  0
  8  9  2  0
 10 17  1  0
 10 11  1  0
 11 12  2  0
 11 16  1  0
 12 13  1  0
 13 14  2  0
 14 15  1  0
 15 16  2  0
 17 18  2  0
 17 22  1  0
 18 19  1  0
 19 20  2  0
 20 21  1  0
 21 22  2  0
M  END
