WPC0684_minimised.pdb
     RDKit          3D

 24 26  0  0  0  0  0  0  0  0999 V2000
    8.6330    0.0390   19.9970 O   0  0  0  0  0  0  0  0  0  0  0  0
    7.8890   -0.1890   20.9300 C   0  0  0  0  0  0  0  0  0  0  0  0
    8.3080   -0.5410   22.1890 N   0  0  0  0  0  0  0  0  0  0  0  0
    9.6520   -0.4940   22.6180 C   0  0  0  0  0  0  0  0  0  0  0  0
   10.6650   -1.0550   21.8250 C   0  0  0  0  0  0  0  0  0  0  0  0
   12.0130   -0.7920   22.1040 C   0  0  0  0  0  0  0  0  0  0  0  0
   12.3480    0.0080   23.2040 C   0  0  0  0  0  0  0  0  0  0  0  0
   14.0360    0.5160   23.4350 S   0  0  0  0  0  0  0  0  0  0  0  0
   14.2120    1.9040   22.2340 C   0  0  0  0  0  0  0  0  0  0  0  0
   13.3080    3.0870   22.5390 C   0  0  0  0  0  0  0  0  0  0  0  0
   13.8090    4.3040   23.0340 C   0  0  0  0  0  0  0  0  0  0  0  0
   12.9090    5.3310   23.3650 C   0  0  0  0  0  0  0  0  0  0  0  0
   11.5400    5.0940   23.1730 C   0  0  0  0  0  0  0  0  0  0  0  0
   11.1300    3.8640   22.6400 C   0  0  0  0  0  0  0  0  0  0  0  0
   12.0000    2.8930   22.3180 N   0  0  0  0  0  0  0  0  0  0  0  0
   11.3400    0.4760   24.0640 C   0  0  0  0  0  0  0  0  0  0  0  0
    9.9900    0.2330   23.7680 C   0  0  0  0  0  0  0  0  0  0  0  0
    6.5300   -0.0790   20.8170 N   0  0  0  0  0  0  0  0  0  0  0  0
    5.8610    0.4710   19.6960 C   0  0  0  0  0  0  0  0  0  0  0  0
    4.9010    1.4680   19.9020 C   0  0  0  0  0  0  0  0  0  0  0  0
    4.3570    2.0900   18.7710 C   0  0  0  0  0  0  0  0  0  0  0  0
    4.7910    1.7100   17.4930 C   0  0  0  0  0  0  0  0  0  0  0  0
    5.6790    0.7120   17.2820 N   0  0  0  0  0  0  0  0  0  0  0  0
    6.2140    0.1240   18.3720 C   0  0  0  0  0  0  0  0  0  0  0  0
  1  2  2  0
  2  3  1  0
  2 18  1  0
  3  4  1  0
  4  5  2  0
  4 17  1  0
  5  6  1  0
  6  7  2  0
  7  8  1  0
  7 16  1  0
  8  9  1  0
  9 10  1  0
 10 11  2  0
 10 15  1  0
 11 12  1  0
 12 13  2  0
 13 14  1  0
 14 15  2  0
 16 17  2  0
 18 19  1  0
 19 20  2  0
 19 24  1  0
 20 21  1  0
 21 22  2  0
 22 23  1  0
 23 24  2  0
M  END
