WPC0757_minimised.pdb
     RDKit          3D

 24 26  0  0  0  0  0  0  0  0999 V2000
    8.5350    0.0850   19.9210 O   0  0  0  0  0  0  0  0  0  0  0  0
    7.7630   -0.2140   20.8120 C   0  0  0  0  0  0  0  0  0  0  0  0
    8.1360   -0.5920   22.0760 N   0  0  0  0  0  0  0  0  0  0  0  0
    9.4350   -0.4290   22.5960 C   0  0  0  0  0  0  0  0  0  0  0  0
   10.5520   -0.8350   21.8510 C   0  0  0  0  0  0  0  0  0  0  0  0
   11.8380   -0.4380   22.2360 C   0  0  0  0  0  0  0  0  0  0  0  0
   12.0060    0.3580   23.3790 C   0  0  0  0  0  0  0  0  0  0  0  0
   13.3660    0.9310   23.6970 C   0  0  0  0  0  0  0  0  0  0  0  0
   13.7260    2.4870   22.7670 S   0  0  0  0  0  0  0  0  0  0  0  0
   12.5140    3.7120   23.2300 C   0  0  0  0  0  0  0  0  0  0  0  0
   12.9570    4.9110   23.8050 C   0  0  0  0  0  0  0  0  0  0  0  0
   12.0430    5.9190   24.1530 C   0  0  0  0  0  0  0  0  0  0  0  0
   10.6770    5.7390   23.8830 C   0  0  0  0  0  0  0  0  0  0  0  0
   10.2310    4.5510   23.2840 C   0  0  0  0  0  0  0  0  0  0  0  0
   11.1500    3.5440   22.9480 C   0  0  0  0  0  0  0  0  0  0  0  0
   10.9000    0.6540   24.1980 C   0  0  0  0  0  0  0  0  0  0  0  0
    9.6120    0.2680   23.7990 C   0  0  0  0  0  0  0  0  0  0  0  0
    6.4060   -0.1520   20.6610 N   0  0  0  0  0  0  0  0  0  0  0  0
    5.7500    0.4450   19.5600 C   0  0  0  0  0  0  0  0  0  0  0  0
    4.7850    1.4310   19.7980 C   0  0  0  0  0  0  0  0  0  0  0  0
    4.2460    2.0940   18.6890 C   0  0  0  0  0  0  0  0  0  0  0  0
    4.6900    1.7630   17.4010 C   0  0  0  0  0  0  0  0  0  0  0  0
    5.5880    0.7810   17.1590 N   0  0  0  0  0  0  0  0  0  0  0  0
    6.1190    0.1550   18.2290 C   0  0  0  0  0  0  0  0  0  0  0  0
  1  2  2  0
  2  3  1  0
  2 18  1  0
  3  4  1  0
  4  5  2  0
  4 17  1  0
  5  6  1  0
  6  7  2  0
  7  8  1  0
  7 16  1  0
  8  9  1  0
  9 10  1  0
 10 11  2  0
 10 15  1  0
 11 12  1  0
 12 13  2  0
 13 14  1  0
 14 15  2  0
 16 17  2  0
 18 19  1  0
 19 20  2  0
 19 24  1  0
 20 21  1  0
 21 22  2  0
 22 23  1  0
 23 24  2  0
M  END
