WPC0988_minimised.pdb
     RDKit          3D

 23 24  0  0  0  0  0  0  0  0999 V2000
   11.6700    5.2560   24.4330 C   0  0  0  0  0  0  0  0  0  0  0  0
   11.9550    3.8300   24.1960 N   0  0  0  0  0  0  0  0  0  0  0  0
   12.9120    3.5090   23.4210 C   0  0  0  0  0  0  0  0  0  0  0  0
   13.9430    4.3030   23.0530 N   0  0  0  0  0  0  0  0  0  0  0  0
   13.8710    5.2470   21.9350 C   0  0  0  0  0  0  0  0  0  0  0  0
   13.4030    2.2600   23.2350 N   0  0  0  0  0  0  0  0  0  0  0  0
   13.0040    1.0340   23.9190 C   0  0  0  0  0  0  0  0  0  0  0  0
   11.6680    0.5290   23.4330 C   0  0  0  0  0  0  0  0  0  0  0  0
   11.5840   -0.3280   22.3220 C   0  0  0  0  0  0  0  0  0  0  0  0
   10.3260   -0.7280   21.8510 C   0  0  0  0  0  0  0  0  0  0  0  0
    9.1590   -0.2610   22.4750 C   0  0  0  0  0  0  0  0  0  0  0  0
    7.8930   -0.4820   21.9030 N   0  0  0  0  0  0  0  0  0  0  0  0
    7.5820   -0.1740   20.6080 C   0  0  0  0  0  0  0  0  0  0  0  0
    8.3940    0.0250   19.7250 O   0  0  0  0  0  0  0  0  0  0  0  0
    6.2350   -0.0410   20.4250 N   0  0  0  0  0  0  0  0  0  0  0  0
    5.6340    0.6000   19.3190 C   0  0  0  0  0  0  0  0  0  0  0  0
    4.6650    1.5830   19.5490 C   0  0  0  0  0  0  0  0  0  0  0  0
    4.1900    2.2990   18.4430 C   0  0  0  0  0  0  0  0  0  0  0  0
    4.7130    2.0330   17.1700 C   0  0  0  0  0  0  0  0  0  0  0  0
    5.6170    1.0550   16.9340 N   0  0  0  0  0  0  0  0  0  0  0  0
    6.0700    0.3640   17.9980 C   0  0  0  0  0  0  0  0  0  0  0  0
    9.2450    0.5480   23.6160 C   0  0  0  0  0  0  0  0  0  0  0  0
   10.5000    0.9400   24.0970 C   0  0  0  0  0  0  0  0  0  0  0  0
  1  2  1  0
  2  3  2  0
  3  4  1  0
  3  6  1  0
  4  5  1  0
  6  7  1  0
  7  8  1  0
  8 23  2  0
  8  9  1  0
  9 10  2  0
 10 11  1  0
 11 12  1  0
 11 22  2  0
 12 13  1  0
 13 14  2  0
 13 15  1  0
 15 16  1  0
 16 17  2  0
 16 21  1  0
 17 18  1  0
 18 19  2  0
 19 20  1  0
 20 21  2  0
 22 23  1  0
M  END
