WPC0692_minimised.pdb
     RDKit          3D

 22 23  0  0  0  0  0  0  0  0999 V2000
   14.1900    4.6290   23.4650 N   0  0  0  0  0  0  0  0  0  0  0  0
   13.0500    4.0280   22.5610 S   0  0  0  0  0  0  0  0  0  0  0  0
   12.1850    4.1340   23.7070 O   0  0  0  0  0  0  0  0  0  0  0  0
   13.3140    5.0990   21.6370 O   0  0  0  0  0  0  0  0  0  0  0  0
   13.8720    2.4640   22.2500 C   0  0  0  0  0  0  0  0  0  0  0  0
   13.5380    1.2940   23.1990 C   0  0  0  0  0  0  0  0  0  0  0  0
   12.1470    0.7470   22.9770 C   0  0  0  0  0  0  0  0  0  0  0  0
   11.9280   -0.2170   21.9800 C   0  0  0  0  0  0  0  0  0  0  0  0
   10.6250   -0.6580   21.7170 C   0  0  0  0  0  0  0  0  0  0  0  0
    9.5410   -0.1250   22.4300 C   0  0  0  0  0  0  0  0  0  0  0  0
    8.2210   -0.3780   22.0080 N   0  0  0  0  0  0  0  0  0  0  0  0
    7.7830   -0.1220   20.7390 C   0  0  0  0  0  0  0  0  0  0  0  0
    8.5180    0.1210   19.8000 O   0  0  0  0  0  0  0  0  0  0  0  0
    6.4210   -0.0950   20.6290 N   0  0  0  0  0  0  0  0  0  0  0  0
    5.7340    0.4770   19.5320 C   0  0  0  0  0  0  0  0  0  0  0  0
    4.7790    1.4700   19.7770 C   0  0  0  0  0  0  0  0  0  0  0  0
    4.2440    2.1450   18.6730 C   0  0  0  0  0  0  0  0  0  0  0  0
    4.6900    1.8240   17.3830 C   0  0  0  0  0  0  0  0  0  0  0  0
    5.5730    0.8310   17.1340 N   0  0  0  0  0  0  0  0  0  0  0  0
    6.0920    0.1860   18.1980 C   0  0  0  0  0  0  0  0  0  0  0  0
    9.7660    0.7800   23.4750 C   0  0  0  0  0  0  0  0  0  0  0  0
   11.0700    1.2080   23.7560 C   0  0  0  0  0  0  0  0  0  0  0  0
  1  2  1  0
  2  3  2  0
  2  4  2  0
  2  5  1  0
  5  6  1  0
  6  7  1  0
  7 22  2  0
  7  8  1  0
  8  9  2  0
  9 10  1  0
 10 11  1  0
 10 21  2  0
 11 12  1  0
 12 13  2  0
 12 14  1  0
 14 15  1  0
 15 16  2  0
 15 20  1  0
 16 17  1  0
 17 18  2  0
 18 19  1  0
 19 20  2  0
 21 22  1  0
M  END
