WPC0678_minimised.pdb
     RDKit          3D

 24 26  0  0  0  0  0  0  0  0999 V2000
   10.5440    5.4960   22.9180 N   0  0  0  0  0  0  0  0  0  0  0  0
   11.6390    4.6980   22.8820 C   0  0  0  0  0  0  0  0  0  0  0  0
   12.7720    5.0900   23.4170 N   0  0  0  0  0  0  0  0  0  0  0  0
   13.7560    4.1450   23.2480 N   0  0  0  0  0  0  0  0  0  0  0  0
   13.3110    3.0710   22.6160 C   0  0  0  0  0  0  0  0  0  0  0  0
   14.1400    1.8310   22.3950 C   0  0  0  0  0  0  0  0  0  0  0  0
   13.7700    0.6620   23.3360 C   0  0  0  0  0  0  0  0  0  0  0  0
   12.3370    0.2020   23.1500 C   0  0  0  0  0  0  0  0  0  0  0  0
   12.0080   -0.6230   22.0640 C   0  0  0  0  0  0  0  0  0  0  0  0
   10.6640   -0.9130   21.7970 C   0  0  0  0  0  0  0  0  0  0  0  0
    9.6470   -0.3620   22.5890 C   0  0  0  0  0  0  0  0  0  0  0  0
    8.3070   -0.4400   22.1600 N   0  0  0  0  0  0  0  0  0  0  0  0
    7.8820   -0.0510   20.9170 C   0  0  0  0  0  0  0  0  0  0  0  0
    8.6240    0.2760   20.0100 O   0  0  0  0  0  0  0  0  0  0  0  0
    6.5220   -0.0330   20.7860 N   0  0  0  0  0  0  0  0  0  0  0  0
    5.8330    0.4980   19.6700 C   0  0  0  0  0  0  0  0  0  0  0  0
    4.8440    1.4660   19.8790 C   0  0  0  0  0  0  0  0  0  0  0  0
    4.2780    2.0710   18.7500 C   0  0  0  0  0  0  0  0  0  0  0  0
    4.7200    1.7010   17.4710 C   0  0  0  0  0  0  0  0  0  0  0  0
    5.6380    0.7310   17.2570 N   0  0  0  0  0  0  0  0  0  0  0  0
    6.1940    0.1610   18.3460 C   0  0  0  0  0  0  0  0  0  0  0  0
    9.9750    0.3850   23.7270 C   0  0  0  0  0  0  0  0  0  0  0  0
   11.3210    0.6590   24.0130 C   0  0  0  0  0  0  0  0  0  0  0  0
   11.6740    3.1950   22.0300 S   0  0  0  0  0  0  0  0  0  0  0  0
  1  2  1  0
  2 24  1  0
  2  3  2  0
  3  4  1  0
  4  5  2  0
  5  6  1  0
  5 24  1  0
  6  7  1  0
  7  8  1  0
  8 23  1  0
  8  9  2  0
  9 10  1  0
 10 11  2  0
 11 12  1  0
 11 22  1  0
 12 13  1  0
 13 14  2  0
 13 15  1  0
 15 16  1  0
 16 17  2  0
 16 21  1  0
 17 18  1  0
 18 19  2  0
 19 20  1  0
 20 21  2  0
 22 23  2  0
M  END
