WPC0723_minimised.pdb
     RDKit          3D

 24 25  0  0  0  0  0  0  0  0999 V2000
   12.2710    6.1870   24.8300 C   0  0  0  0  0  0  0  0  0  0  0  0
   13.1780    6.1210   23.6770 N   0  0  0  0  0  0  0  0  0  0  0  0
   13.8710    7.3360   23.4480 O   0  0  0  0  0  0  0  0  0  0  0  0
   13.3970    5.0370   22.8150 C   0  0  0  0  0  0  0  0  0  0  0  0
   14.1260    5.1590   21.8450 O   0  0  0  0  0  0  0  0  0  0  0  0
   12.7850    3.6740   23.1780 C   0  0  0  0  0  0  0  0  0  0  0  0
   13.7050    2.4880   22.7770 C   0  0  0  0  0  0  0  0  0  0  0  0
   13.4380    1.1510   23.5120 C   0  0  0  0  0  0  0  0  0  0  0  0
   12.0460    0.6050   23.2670 C   0  0  0  0  0  0  0  0  0  0  0  0
   11.8400   -0.3680   22.2750 C   0  0  0  0  0  0  0  0  0  0  0  0
   10.5370   -0.7600   21.9440 C   0  0  0  0  0  0  0  0  0  0  0  0
    9.4420   -0.1850   22.6030 C   0  0  0  0  0  0  0  0  0  0  0  0
    8.1350   -0.3900   22.1200 N   0  0  0  0  0  0  0  0  0  0  0  0
    7.7560   -0.1250   20.8320 C   0  0  0  0  0  0  0  0  0  0  0  0
    8.5280    0.0770   19.9140 O   0  0  0  0  0  0  0  0  0  0  0  0
    6.3990   -0.0490   20.6880 N   0  0  0  0  0  0  0  0  0  0  0  0
    5.7400    0.5130   19.5700 C   0  0  0  0  0  0  0  0  0  0  0  0
    4.7680    1.4980   19.7840 C   0  0  0  0  0  0  0  0  0  0  0  0
    4.2330    2.1400   18.6600 C   0  0  0  0  0  0  0  0  0  0  0  0
    4.6910    1.7930   17.3820 C   0  0  0  0  0  0  0  0  0  0  0  0
    5.5900    0.8070   17.1630 N   0  0  0  0  0  0  0  0  0  0  0  0
    6.1140    0.1980   18.2460 C   0  0  0  0  0  0  0  0  0  0  0  0
    9.6490    0.7020   23.6680 C   0  0  0  0  0  0  0  0  0  0  0  0
   10.9530    1.0900   24.0070 C   0  0  0  0  0  0  0  0  0  0  0  0
  1  2  1  0
  2  3  1  0
  2  4  1  0
  4  5  2  0
  4  6  1  0
  6  7  1  0
  7  8  1  0
  8  9  1  0
  9 24  2  0
  9 10  1  0
 10 11  2  0
 11 12  1  0
 12 13  1  0
 12 23  2  0
 13 14  1  0
 14 15  2  0
 14 16  1  0
 16 17  1  0
 17 18  2  0
 17 22  1  0
 18 19  1  0
 19 20  2  0
 20 21  1  0
 21 22  2  0
 23 24  1  0
M  END
