WPC0728_minimised.pdb
     RDKit          3D

 22 23  0  0  0  0  0  0  0  0999 V2000
   11.5560    3.6660   24.6690 N   0  0  0  0  0  0  0  0  0  0  0  0
   12.2590    3.6410   23.6110 C   0  0  0  0  0  0  0  0  0  0  0  0
   12.2660    4.8230   22.6570 C   0  0  0  0  0  0  0  0  0  0  0  0
   10.9830    5.4760   22.5960 O   0  0  0  0  0  0  0  0  0  0  0  0
   13.1440    2.6180   23.3470 N   0  0  0  0  0  0  0  0  0  0  0  0
   13.0740    1.2440   23.8620 C   0  0  0  0  0  0  0  0  0  0  0  0
   11.7960    0.5600   23.4350 C   0  0  0  0  0  0  0  0  0  0  0  0
   11.7470   -0.1670   22.2360 C   0  0  0  0  0  0  0  0  0  0  0  0
   10.5220   -0.6810   21.7930 C   0  0  0  0  0  0  0  0  0  0  0  0
    9.3480   -0.4440   22.5240 C   0  0  0  0  0  0  0  0  0  0  0  0
    8.0820   -0.7050   21.9640 N   0  0  0  0  0  0  0  0  0  0  0  0
    7.7070   -0.3020   20.7120 C   0  0  0  0  0  0  0  0  0  0  0  0
    8.4720    0.0300   19.8250 O   0  0  0  0  0  0  0  0  0  0  0  0
    6.3520   -0.2370   20.5640 N   0  0  0  0  0  0  0  0  0  0  0  0
    5.7070    0.4140   19.4890 C   0  0  0  0  0  0  0  0  0  0  0  0
    4.7790    1.4270   19.7570 C   0  0  0  0  0  0  0  0  0  0  0  0
    4.2740    2.1490   18.6690 C   0  0  0  0  0  0  0  0  0  0  0  0
    4.7180    1.8510   17.3720 C   0  0  0  0  0  0  0  0  0  0  0  0
    5.5870    0.8510   17.1040 N   0  0  0  0  0  0  0  0  0  0  0  0
    6.0760    0.1600   18.1520 C   0  0  0  0  0  0  0  0  0  0  0  0
    9.4140    0.2000   23.7650 C   0  0  0  0  0  0  0  0  0  0  0  0
   10.6410    0.6910   24.2280 C   0  0  0  0  0  0  0  0  0  0  0  0
  1  2  2  0
  2  3  1  0
  2  5  1  0
  3  4  1  0
  5  6  1  0
  6  7  1  0
  7 22  2  0
  7  8  1  0
  8  9  2  0
  9 10  1  0
 10 11  1  0
 10 21  2  0
 11 12  1  0
 12 13  2  0
 12 14  1  0
 14 15  1  0
 15 16  2  0
 15 20  1  0
 16 17  1  0
 17 18  2  0
 18 19  1  0
 19 20  2  0
 21 22  1  0
M  END
