WPC0384_minimised.pdb
     RDKit          3D

 22 23  0  0  0  0  0  0  0  0999 V2000
   12.2400    5.0370   23.1650 C   0  0  0  0  0  0  0  0  0  0  0  0
   13.4340    4.1290   22.9420 C   0  0  0  0  0  0  0  0  0  0  0  0
   14.5770    4.4780   23.1760 O   0  0  0  0  0  0  0  0  0  0  0  0
   13.0350    2.8310   22.8800 O   0  0  0  0  0  0  0  0  0  0  0  0
   13.9880    1.7800   22.6220 C   0  0  0  0  0  0  0  0  0  0  0  0
   13.5510    0.5110   23.3730 C   0  0  0  0  0  0  0  0  0  0  0  0
   12.1020    0.1430   23.1080 C   0  0  0  0  0  0  0  0  0  0  0  0
   11.7740   -0.7850   22.1060 C   0  0  0  0  0  0  0  0  0  0  0  0
   10.4280   -1.0390   21.8080 C   0  0  0  0  0  0  0  0  0  0  0  0
    9.4120   -0.3530   22.4880 C   0  0  0  0  0  0  0  0  0  0  0  0
    8.0800   -0.4340   22.0400 N   0  0  0  0  0  0  0  0  0  0  0  0
    7.6940   -0.1190   20.7650 C   0  0  0  0  0  0  0  0  0  0  0  0
    8.4620    0.0670   19.8400 O   0  0  0  0  0  0  0  0  0  0  0  0
    6.3400    0.0180   20.6400 N   0  0  0  0  0  0  0  0  0  0  0  0
    5.6880    0.5940   19.5250 C   0  0  0  0  0  0  0  0  0  0  0  0
    4.7230    1.5840   19.7430 C   0  0  0  0  0  0  0  0  0  0  0  0
    4.1950    2.2350   18.6210 C   0  0  0  0  0  0  0  0  0  0  0  0
    4.6570    1.8940   17.3410 C   0  0  0  0  0  0  0  0  0  0  0  0
    5.5500    0.9030   17.1190 N   0  0  0  0  0  0  0  0  0  0  0  0
    6.0620    0.2820   18.2000 C   0  0  0  0  0  0  0  0  0  0  0  0
    9.7330    0.5220   23.5330 C   0  0  0  0  0  0  0  0  0  0  0  0
   11.0770    0.7630   23.8470 C   0  0  0  0  0  0  0  0  0  0  0  0
  1  2  1  0
  2  3  2  0
  2  4  1  0
  4  5  1  0
  5  6  1  0
  6  7  1  0
  7 22  2  0
  7  8  1  0
  8  9  2  0
  9 10  1  0
 10 11  1  0
 10 21  2  0
 11 12  1  0
 12 13  2  0
 12 14  1  0
 14 15  1  0
 15 16  2  0
 15 20  1  0
 16 17  1  0
 17 18  2  0
 18 19  1  0
 19 20  2  0
 21 22  1  0
M  END
