WPC0794_minimised.pdb
     RDKit          3D

 22 23  0  0  0  0  0  0  0  0999 V2000
    8.5920    0.2050   19.9240 O   0  0  0  0  0  0  0  0  0  0  0  0
    7.8490   -0.0750   20.8460 C   0  0  0  0  0  0  0  0  0  0  0  0
    8.2750   -0.4180   22.1020 N   0  0  0  0  0  0  0  0  0  0  0  0
    9.6120   -0.3070   22.5430 C   0  0  0  0  0  0  0  0  0  0  0  0
   10.6620   -0.7800   21.7400 C   0  0  0  0  0  0  0  0  0  0  0  0
   11.9910   -0.4730   22.0570 C   0  0  0  0  0  0  0  0  0  0  0  0
   12.2690    0.2820   23.2020 C   0  0  0  0  0  0  0  0  0  0  0  0
   13.9390    0.7890   23.5060 S   0  0  0  0  0  0  0  0  0  0  0  0
   14.0410    2.3600   22.5550 C   0  0  0  0  0  0  0  0  0  0  0  0
   12.9740    3.3840   23.0070 C   0  0  0  0  0  0  0  0  0  0  0  0
   13.5140    4.8300   23.0230 C   0  0  0  0  0  0  0  0  0  0  0  0
   12.6190    5.7610   23.8630 C   0  0  0  0  0  0  0  0  0  0  0  0
   13.2200    7.0430   23.9790 O   0  0  0  0  0  0  0  0  0  0  0  0
   11.2300    0.6710   24.0640 C   0  0  0  0  0  0  0  0  0  0  0  0
    9.8980    0.3840   23.7300 C   0  0  0  0  0  0  0  0  0  0  0  0
    6.4880   -0.0370   20.7220 N   0  0  0  0  0  0  0  0  0  0  0  0
    5.8090    0.5180   19.6110 C   0  0  0  0  0  0  0  0  0  0  0  0
    4.8390    1.5030   19.8290 C   0  0  0  0  0  0  0  0  0  0  0  0
    4.3000    2.1440   18.7070 C   0  0  0  0  0  0  0  0  0  0  0  0
    4.7550    1.8000   17.4260 C   0  0  0  0  0  0  0  0  0  0  0  0
    5.6500    0.8110   17.2020 N   0  0  0  0  0  0  0  0  0  0  0  0
    6.1750    0.2010   18.2840 C   0  0  0  0  0  0  0  0  0  0  0  0
  1  2  2  0
  2  3  1  0
  2 16  1  0
  3  4  1  0
  4  5  2  0
  4 15  1  0
  5  6  1  0
  6  7  2  0
  7  8  1  0
  7 14  1  0
  8  9  1  0
  9 10  1  0
 10 11  1  0
 11 12  1  0
 12 13  1  0
 14 15  2  0
 16 17  1  0
 17 18  2  0
 17 22  1  0
 18 19  1  0
 19 20  2  0
 20 21  1  0
 21 22  2  0
M  END
