WPC0777_minimised.pdb
     RDKit          3D

 24 26  0  0  0  0  0  0  0  0999 V2000
    8.4790   -0.2530   19.7300 O   0  0  0  0  0  0  0  0  0  0  0  0
    7.7730   -0.2480   20.7170 C   0  0  0  0  0  0  0  0  0  0  0  0
    8.2250   -0.3310   22.0030 N   0  0  0  0  0  0  0  0  0  0  0  0
    9.5480   -0.0530   22.3880 C   0  0  0  0  0  0  0  0  0  0  0  0
   10.6150   -0.8630   21.9720 C   0  0  0  0  0  0  0  0  0  0  0  0
   11.9340   -0.5040   22.2970 C   0  0  0  0  0  0  0  0  0  0  0  0
   12.1870    0.6750   23.0230 C   0  0  0  0  0  0  0  0  0  0  0  0
   13.6010    1.0970   23.3770 C   0  0  0  0  0  0  0  0  0  0  0  0
   14.1380    2.1350   22.4880 N   0  0  0  0  0  0  0  0  0  0  0  0
   13.8110    3.4610   22.5180 C   0  0  0  0  0  0  0  0  0  0  0  0
   13.1610    3.9990   23.5030 N   0  0  0  0  0  0  0  0  0  0  0  0
   13.0490    5.3360   23.2330 C   0  0  0  0  0  0  0  0  0  0  0  0
   12.4740    6.0740   24.0200 O   0  0  0  0  0  0  0  0  0  0  0  0
   13.6070    5.7780   22.1120 N   0  0  0  0  0  0  0  0  0  0  0  0
   14.2970    4.5670   21.2840 S   0  0  0  0  0  0  0  0  0  0  0  0
   11.1080    1.4640   23.4580 C   0  0  0  0  0  0  0  0  0  0  0  0
    9.7930    1.1010   23.1410 C   0  0  0  0  0  0  0  0  0  0  0  0
    6.4190   -0.0830   20.6560 N   0  0  0  0  0  0  0  0  0  0  0  0
    5.7290    0.4630   19.5500 C   0  0  0  0  0  0  0  0  0  0  0  0
    4.8020    1.4860   19.7860 C   0  0  0  0  0  0  0  0  0  0  0  0
    4.2200    2.1070   18.6750 C   0  0  0  0  0  0  0  0  0  0  0  0
    4.5890    1.7030   17.3850 C   0  0  0  0  0  0  0  0  0  0  0  0
    5.4460    0.6830   17.1460 N   0  0  0  0  0  0  0  0  0  0  0  0
    6.0170    0.0950   18.2170 C   0  0  0  0  0  0  0  0  0  0  0  0
  1  2  2  0
  2  3  1  0
  2 18  1  0
  3  4  1  0
  4  5  2  0
  4 17  1  0
  5  6  1  0
  6  7  2  0
  7  8  1  0
  7 16  1  0
  8  9  1  0
  9 10  1  0
 10 11  2  0
 10 15  1  0
 11 12  1  0
 12 13  2  0
 12 14  1  0
 14 15  2  0
 16 17  2  0
 18 19  1  0
 19 20  2  0
 19 24  1  0
 20 21  1  0
 21 22  2  0
 22 23  1  0
 23 24  2  0
M  END
