WPC0845_minimised.pdb
     RDKit          3D

 19 20  0  0  0  0  0  0  0  0999 V2000
   14.0590    2.7390   22.8950 N   0  0  0  0  0  0  0  0  0  0  0  0
   14.3240    1.4260   22.3040 C   0  0  0  0  0  0  0  0  0  0  0  0
   13.8000    0.2780   23.1720 C   0  0  0  0  0  0  0  0  0  0  0  0
   12.3060    0.0910   22.9890 C   0  0  0  0  0  0  0  0  0  0  0  0
   11.8270   -0.9010   22.1180 C   0  0  0  0  0  0  0  0  0  0  0  0
   10.4520   -1.0150   21.8750 C   0  0  0  0  0  0  0  0  0  0  0  0
    9.5550   -0.1320   22.4920 C   0  0  0  0  0  0  0  0  0  0  0  0
    8.2010   -0.1340   22.1080 N   0  0  0  0  0  0  0  0  0  0  0  0
    7.7780    0.1030   20.8300 C   0  0  0  0  0  0  0  0  0  0  0  0
    8.5230    0.2310   19.8760 O   0  0  0  0  0  0  0  0  0  0  0  0
    6.4210    0.2180   20.7260 N   0  0  0  0  0  0  0  0  0  0  0  0
    5.7370    0.7100   19.5900 C   0  0  0  0  0  0  0  0  0  0  0  0
    4.7530    1.6890   19.7720 C   0  0  0  0  0  0  0  0  0  0  0  0
    4.1940    2.2690   18.6270 C   0  0  0  0  0  0  0  0  0  0  0  0
    4.6430    1.8710   17.3600 C   0  0  0  0  0  0  0  0  0  0  0  0
    5.5500    0.8850   17.1720 N   0  0  0  0  0  0  0  0  0  0  0  0
    6.0930    0.3330   18.2760 C   0  0  0  0  0  0  0  0  0  0  0  0
   10.0230    0.8330   23.3940 C   0  0  0  0  0  0  0  0  0  0  0  0
   11.4000    0.9460   23.6410 C   0  0  0  0  0  0  0  0  0  0  0  0
  1  2  1  0
  2  3  1  0
  3  4  1  0
  4 19  2  0
  4  5  1  0
  5  6  2  0
  6  7  1  0
  7  8  1  0
  7 18  2  0
  8  9  1  0
  9 10  2  0
  9 11  1  0
 11 12  1  0
 12 13  2  0
 12 17  1  0
 13 14  1  0
 14 15  2  0
 15 16  1  0
 16 17  2  0
 18 19  1  0
M  END
