WPC0597_minimised.pdb
     RDKit          3D

 21 22  0  0  0  0  0  0  0  0999 V2000
   11.6910    3.7000   23.3470 C   0  0  0  0  0  0  0  0  0  0  0  0
   13.1340    3.5110   22.9090 C   0  0  0  0  0  0  0  0  0  0  0  0
   13.8040    4.4320   22.4910 O   0  0  0  0  0  0  0  0  0  0  0  0
   13.7170    2.2680   22.9880 N   0  0  0  0  0  0  0  0  0  0  0  0
   13.2840    1.0720   23.7270 C   0  0  0  0  0  0  0  0  0  0  0  0
   11.9470    0.4930   23.3320 C   0  0  0  0  0  0  0  0  0  0  0  0
   11.8300   -0.2610   22.1560 C   0  0  0  0  0  0  0  0  0  0  0  0
   10.5700   -0.7180   21.7500 C   0  0  0  0  0  0  0  0  0  0  0  0
    9.4270   -0.4080   22.5030 C   0  0  0  0  0  0  0  0  0  0  0  0
    8.1380   -0.6410   21.9850 N   0  0  0  0  0  0  0  0  0  0  0  0
    7.7430   -0.2790   20.7260 C   0  0  0  0  0  0  0  0  0  0  0  0
    8.5000    0.0270   19.8240 O   0  0  0  0  0  0  0  0  0  0  0  0
    6.3840   -0.2310   20.5900 N   0  0  0  0  0  0  0  0  0  0  0  0
    5.7210    0.3920   19.5070 C   0  0  0  0  0  0  0  0  0  0  0  0
    4.7670    1.3820   19.7720 C   0  0  0  0  0  0  0  0  0  0  0  0
    4.2400    2.0840   18.6810 C   0  0  0  0  0  0  0  0  0  0  0  0
    4.6900    1.7920   17.3860 C   0  0  0  0  0  0  0  0  0  0  0  0
    5.5780    0.8070   17.1190 N   0  0  0  0  0  0  0  0  0  0  0  0
    6.0910    0.1370   18.1690 C   0  0  0  0  0  0  0  0  0  0  0  0
    9.5580    0.2560   23.7280 C   0  0  0  0  0  0  0  0  0  0  0  0
   10.8200    0.6910   24.1530 C   0  0  0  0  0  0  0  0  0  0  0  0
  1  2  1  0
  2  3  2  0
  2  4  1  0
  4  5  1  0
  5  6  1  0
  6 21  2  0
  6  7  1  0
  7  8  2  0
  8  9  1  0
  9 10  1  0
  9 20  2  0
 10 11  1  0
 11 12  2  0
 11 13  1  0
 13 14  1  0
 14 15  2  0
 14 19  1  0
 15 16  1  0
 16 17  2  0
 17 18  1  0
 18 19  2  0
 20 21  1  0
M  END
