WPC0873_minimised.pdb
     RDKit          3D

 21 22  0  0  0  0  0  0  0  0999 V2000
   12.6230    5.6600   23.6770 C   0  0  0  0  0  0  0  0  0  0  0  0
   13.5220    4.7040   22.8710 C   0  0  0  0  0  0  0  0  0  0  0  0
   12.9850    3.2570   22.9000 C   0  0  0  0  0  0  0  0  0  0  0  0
   14.0460    2.2180   22.4700 C   0  0  0  0  0  0  0  0  0  0  0  0
   13.9160    0.6600   23.4380 S   0  0  0  0  0  0  0  0  0  0  0  0
   12.2330    0.1810   23.1540 C   0  0  0  0  0  0  0  0  0  0  0  0
   11.9310   -0.6150   22.0430 C   0  0  0  0  0  0  0  0  0  0  0  0
   10.5920   -0.8960   21.7410 C   0  0  0  0  0  0  0  0  0  0  0  0
    9.5600   -0.3620   22.5260 C   0  0  0  0  0  0  0  0  0  0  0  0
    8.2220   -0.4470   22.0860 N   0  0  0  0  0  0  0  0  0  0  0  0
    7.8100   -0.0900   20.8290 C   0  0  0  0  0  0  0  0  0  0  0  0
    8.5640    0.1860   19.9140 O   0  0  0  0  0  0  0  0  0  0  0  0
    6.4510   -0.0260   20.7000 N   0  0  0  0  0  0  0  0  0  0  0  0
    5.7830    0.5360   19.5860 C   0  0  0  0  0  0  0  0  0  0  0  0
    4.8100    1.5190   19.8030 C   0  0  0  0  0  0  0  0  0  0  0  0
    4.2790    2.1660   18.6810 C   0  0  0  0  0  0  0  0  0  0  0  0
    4.7430    1.8290   17.4010 C   0  0  0  0  0  0  0  0  0  0  0  0
    5.6410    0.8430   17.1780 N   0  0  0  0  0  0  0  0  0  0  0  0
    6.1590    0.2270   18.2600 C   0  0  0  0  0  0  0  0  0  0  0  0
    9.8660    0.3690   23.6830 C   0  0  0  0  0  0  0  0  0  0  0  0
   11.2070    0.6320   24.0020 C   0  0  0  0  0  0  0  0  0  0  0  0
  1  2  1  0
  2  3  1  0
  3  4  1  0
  4  5  1  0
  5  6  1  0
  6 21  2  0
  6  7  1  0
  7  8  2  0
  8  9  1  0
  9 10  1  0
  9 20  2  0
 10 11  1  0
 11 12  2  0
 11 13  1  0
 13 14  1  0
 14 15  2  0
 14 19  1  0
 15 16  1  0
 16 17  2  0
 17 18  1  0
 18 19  2  0
 20 21  1  0
M  END
