WPC0979_minimised.pdb
     RDKit          3D

 17 18  0  0  0  0  0  0  0  0999 V2000
    8.5330    0.2230   19.8400 O   0  0  0  0  0  0  0  0  0  0  0  0
    7.8380    0.1070   20.8290 C   0  0  0  0  0  0  0  0  0  0  0  0
    8.3450   -0.0550   22.0880 N   0  0  0  0  0  0  0  0  0  0  0  0
    9.7210    0.0280   22.3810 C   0  0  0  0  0  0  0  0  0  0  0  0
   10.6100   -0.9070   21.8290 C   0  0  0  0  0  0  0  0  0  0  0  0
   11.9920   -0.7490   22.0050 C   0  0  0  0  0  0  0  0  0  0  0  0
   12.4890    0.3410   22.7340 C   0  0  0  0  0  0  0  0  0  0  0  0
   14.2370    0.5500   22.9210 S   0  0  0  0  0  0  0  0  0  0  0  0
   11.5970    1.2630   23.3060 C   0  0  0  0  0  0  0  0  0  0  0  0
   10.2130    1.1070   23.1310 C   0  0  0  0  0  0  0  0  0  0  0  0
    6.4730    0.1770   20.7760 N   0  0  0  0  0  0  0  0  0  0  0  0
    5.7470    0.6520   19.6570 C   0  0  0  0  0  0  0  0  0  0  0  0
    4.7780    1.6440   19.8530 C   0  0  0  0  0  0  0  0  0  0  0  0
    4.2010    2.2240   18.7170 C   0  0  0  0  0  0  0  0  0  0  0  0
    4.6190    1.8160   17.4420 C   0  0  0  0  0  0  0  0  0  0  0  0
    5.5090    0.8170   17.2420 N   0  0  0  0  0  0  0  0  0  0  0  0
    6.0650    0.2600   18.3360 C   0  0  0  0  0  0  0  0  0  0  0  0
  1  2  2  0
  2  3  1  0
  2 11  1  0
  3  4  1  0
  4  5  2  0
  4 10  1  0
  5  6  1  0
  6  7  2  0
  7  8  1  0
  7  9  1  0
  9 10  2  0
 11 12  1  0
 12 13  2  0
 12 17  1  0
 13 14  1  0
 14 15  2  0
 15 16  1  0
 16 17  2  0
M  END
