WPC0995_minimised.pdb
     RDKit          3D

 22 23  0  0  1  0  0  0  0  0999 V2000
   14.1790   -0.8040   23.9850 C   0  0  0  0  0  0  0  0  0  0  0  0
   13.4130    0.4870   23.6530 C   0  0  1  0  0  0  0  0  0  0  0  0
   14.1380    1.3330   22.5780 C   0  0  0  0  0  0  0  0  0  0  0  0
   13.6760    2.7910   22.5530 C   0  0  0  0  0  0  0  0  0  0  0  0
   12.5400    3.1420   22.3250 O   0  0  0  0  0  0  0  0  0  0  0  0
   14.6030    3.6860   22.9380 O   0  0  0  0  0  0  0  0  0  0  0  0
   11.9750    0.1800   23.2700 C   0  0  0  0  0  0  0  0  0  0  0  0
   11.6870   -0.7160   22.2240 C   0  0  0  0  0  0  0  0  0  0  0  0
   10.3580   -0.9480   21.8480 C   0  0  0  0  0  0  0  0  0  0  0  0
    9.3140   -0.2750   22.4960 C   0  0  0  0  0  0  0  0  0  0  0  0
    7.9960   -0.3660   22.0090 N   0  0  0  0  0  0  0  0  0  0  0  0
    7.6410   -0.1220   20.7110 C   0  0  0  0  0  0  0  0  0  0  0  0
    8.4240   -0.0190   19.7870 O   0  0  0  0  0  0  0  0  0  0  0  0
    6.2940    0.0470   20.5660 N   0  0  0  0  0  0  0  0  0  0  0  0
    5.6620    0.6230   19.4410 C   0  0  0  0  0  0  0  0  0  0  0  0
    4.6890    1.6080   19.6510 C   0  0  0  0  0  0  0  0  0  0  0  0
    4.1740    2.2620   18.5270 C   0  0  0  0  0  0  0  0  0  0  0  0
    4.6580    1.9360   17.2530 C   0  0  0  0  0  0  0  0  0  0  0  0
    5.5590    0.9500   17.0360 N   0  0  0  0  0  0  0  0  0  0  0  0
    6.0570    0.3220   18.1200 C   0  0  0  0  0  0  0  0  0  0  0  0
    9.5910    0.5830   23.5690 C   0  0  0  0  0  0  0  0  0  0  0  0
   10.9190    0.8070   23.9580 C   0  0  0  0  0  0  0  0  0  0  0  0
  2  1  1  6
  2  3  1  0
  2  7  1  0
  3  4  1  0
  4  5  2  0
  4  6  1  0
  7 22  2  0
  7  8  1  0
  8  9  2  0
  9 10  1  0
 10 11  1  0
 10 21  2  0
 11 12  1  0
 12 13  2  0
 12 14  1  0
 14 15  1  0
 15 16  2  0
 15 20  1  0
 16 17  1  0
 17 18  2  0
 18 19  1  0
 19 20  2  0
 21 22  1  0
M  END
