WPC0164_minimised.pdb
     RDKit          3D

 20 21  0  0  0  0  0  0  0  0999 V2000
    2.2500    1.9560   21.3730 O   0  0  0  0  0  0  0  0  0  0  0  0
    3.1130    2.7750   21.0930 C   0  0  0  0  0  0  0  0  0  0  0  0
    2.7880    3.9980   20.6350 O   0  0  0  0  0  0  0  0  0  0  0  0
    4.6000    2.4250   21.0970 C   0  0  0  0  0  0  0  0  0  0  0  0
    5.0240    1.6730   19.8380 C   0  0  0  0  0  0  0  0  0  0  0  0
    4.5090    2.0760   18.5970 C   0  0  0  0  0  0  0  0  0  0  0  0
    5.0010    1.5240   17.4160 C   0  0  0  0  0  0  0  0  0  0  0  0
    5.8950    0.5200   17.3900 N   0  0  0  0  0  0  0  0  0  0  0  0
    6.3800    0.1050   18.5780 C   0  0  0  0  0  0  0  0  0  0  0  0
    6.0050    0.6610   19.8240 C   0  0  0  0  0  0  0  0  0  0  0  0
    6.7090    0.2960   21.0070 N   0  0  0  0  0  0  0  0  0  0  0  0
    8.0770    0.2740   21.0890 C   0  0  0  0  0  0  0  0  0  0  0  0
    8.7680    0.4820   20.1150 O   0  0  0  0  0  0  0  0  0  0  0  0
    8.6110    0.0210   22.3220 N   0  0  0  0  0  0  0  0  0  0  0  0
   10.0000    0.0880   22.5710 C   0  0  0  0  0  0  0  0  0  0  0  0
   10.8650   -0.8500   21.9840 C   0  0  0  0  0  0  0  0  0  0  0  0
   12.2560   -0.6950   22.0930 C   0  0  0  0  0  0  0  0  0  0  0  0
   12.7850    0.4020   22.7940 C   0  0  0  0  0  0  0  0  0  0  0  0
   11.9210    1.3360   23.3860 C   0  0  0  0  0  0  0  0  0  0  0  0
   10.5290    1.1770   23.2800 C   0  0  0  0  0  0  0  0  0  0  0  0
  1  2  2  0
  2  3  1  0
  2  4  1  0
  4  5  1  0
  5  6  2  0
  5 10  1  0
  6  7  1  0
  7  8  2  0
  8  9  1  0
  9 10  2  0
 10 11  1  0
 11 12  1  0
 12 13  2  0
 12 14  1  0
 14 15  1  0
 15 16  2  0
 15 20  1  0
 16 17  1  0
 17 18  2  0
 18 19  1  0
 19 20  2  0
M  END
