WPC0970_minimised.pdb
     RDKit          3D

 21 22  0  0  0  0  0  0  0  0999 V2000
   13.8450    5.4040   22.1920 C   0  0  0  0  0  0  0  0  0  0  0  0
   13.3030    4.3980   22.5550 C   0  0  0  0  0  0  0  0  0  0  0  0
   12.6840    3.1550   23.0200 C   0  0  0  0  0  0  0  0  0  0  0  0
   13.6790    2.0730   23.0370 N   0  0  0  0  0  0  0  0  0  0  0  0
   13.3210    0.8200   23.7170 C   0  0  0  0  0  0  0  0  0  0  0  0
   11.9420    0.3160   23.3530 C   0  0  0  0  0  0  0  0  0  0  0  0
   11.7700   -0.4900   22.2180 C   0  0  0  0  0  0  0  0  0  0  0  0
   10.4800   -0.8610   21.8200 C   0  0  0  0  0  0  0  0  0  0  0  0
    9.3620   -0.4140   22.5400 C   0  0  0  0  0  0  0  0  0  0  0  0
    8.0630   -0.5830   22.0220 N   0  0  0  0  0  0  0  0  0  0  0  0
    7.6950   -0.2280   20.7520 C   0  0  0  0  0  0  0  0  0  0  0  0
    8.4720    0.0450   19.8570 O   0  0  0  0  0  0  0  0  0  0  0  0
    6.3390   -0.1520   20.6010 N   0  0  0  0  0  0  0  0  0  0  0  0
    5.6930    0.4600   19.5020 C   0  0  0  0  0  0  0  0  0  0  0  0
    4.7280    1.4440   19.7450 C   0  0  0  0  0  0  0  0  0  0  0  0
    4.2150    2.1380   18.6410 C   0  0  0  0  0  0  0  0  0  0  0  0
    4.6900    1.8420   17.3560 C   0  0  0  0  0  0  0  0  0  0  0  0
    5.5860    0.8590   17.1090 N   0  0  0  0  0  0  0  0  0  0  0  0
    6.0840    0.1980   18.1720 C   0  0  0  0  0  0  0  0  0  0  0  0
    9.5360    0.3250   23.7180 C   0  0  0  0  0  0  0  0  0  0  0  0
   10.8270    0.6850   24.1290 C   0  0  0  0  0  0  0  0  0  0  0  0
  1  2  3  0
  2  3  1  0
  3  4  1  0
  4  5  1  0
  5  6  1  0
  6 21  2  0
  6  7  1  0
  7  8  2  0
  8  9  1  0
  9 10  1  0
  9 20  2  0
 10 11  1  0
 11 12  2  0
 11 13  1  0
 13 14  1  0
 14 15  2  0
 14 19  1  0
 15 16  1  0
 16 17  2  0
 17 18  1  0
 18 19  2  0
 20 21  1  0
M  END
