WPC0565_minimised.pdb
     RDKit          3D

 18 19  0  0  0  0  0  0  0  0999 V2000
   13.1850    2.3200   23.4380 N   0  0  0  0  0  0  0  0  0  0  0  0
   13.1720    0.8920   23.7420 C   0  0  0  0  0  0  0  0  0  0  0  0
   11.8190    0.3450   23.3690 C   0  0  0  0  0  0  0  0  0  0  0  0
   11.6620   -0.4370   22.2140 C   0  0  0  0  0  0  0  0  0  0  0  0
   10.3780   -0.8200   21.8090 C   0  0  0  0  0  0  0  0  0  0  0  0
    9.2520   -0.4040   22.5360 C   0  0  0  0  0  0  0  0  0  0  0  0
    7.9580   -0.5710   22.0050 N   0  0  0  0  0  0  0  0  0  0  0  0
    7.6000   -0.1950   20.7380 C   0  0  0  0  0  0  0  0  0  0  0  0
    8.3840    0.0870   19.8520 O   0  0  0  0  0  0  0  0  0  0  0  0
    6.2470   -0.1110   20.5750 N   0  0  0  0  0  0  0  0  0  0  0  0
    5.6170    0.5110   19.4730 C   0  0  0  0  0  0  0  0  0  0  0  0
    4.6600    1.5060   19.7070 C   0  0  0  0  0  0  0  0  0  0  0  0
    4.1650    2.2040   18.5990 C   0  0  0  0  0  0  0  0  0  0  0  0
    4.6470    1.9010   17.3170 C   0  0  0  0  0  0  0  0  0  0  0  0
    5.5370    0.9120   17.0790 N   0  0  0  0  0  0  0  0  0  0  0  0
    6.0180    0.2450   18.1470 C   0  0  0  0  0  0  0  0  0  0  0  0
    9.4130    0.3100   23.7310 C   0  0  0  0  0  0  0  0  0  0  0  0
   10.6980    0.6790   24.1520 C   0  0  0  0  0  0  0  0  0  0  0  0
  1  2  1  0
  2  3  1  0
  3 18  2  0
  3  4  1  0
  4  5  2  0
  5  6  1  0
  6  7  1  0
  6 17  2  0
  7  8  1  0
  8  9  2  0
  8 10  1  0
 10 11  1  0
 11 12  2  0
 11 16  1  0
 12 13  1  0
 13 14  2  0
 14 15  1  0
 15 16  2  0
 17 18  1  0
M  END
