WPC0223_minimised.pdb
     RDKit          3D

 20 21  0  0  0  0  0  0  0  0999 V2000
    5.8620    4.0250   21.9060 C   0  0  0  0  0  0  0  0  0  0  0  0
    6.7790    2.8640   22.3350 C   0  0  0  0  0  0  0  0  0  0  0  0
    6.0090    1.5900   22.7440 C   0  0  0  0  0  0  0  0  0  0  0  0
    5.1300    1.1440   21.6860 O   0  0  0  0  0  0  0  0  0  0  0  0
    5.5300    0.9000   20.3880 C   0  0  0  0  0  0  0  0  0  0  0  0
    4.8290    1.5370   19.3560 C   0  0  0  0  0  0  0  0  0  0  0  0
    5.1730    1.2840   18.0220 C   0  0  0  0  0  0  0  0  0  0  0  0
    6.1520    0.4260   17.6710 N   0  0  0  0  0  0  0  0  0  0  0  0
    6.8590   -0.1470   18.6670 C   0  0  0  0  0  0  0  0  0  0  0  0
    6.5820    0.0290   20.0370 C   0  0  0  0  0  0  0  0  0  0  0  0
    7.4500   -0.5590   21.0000 N   0  0  0  0  0  0  0  0  0  0  0  0
    8.7170   -0.0820   21.2150 C   0  0  0  0  0  0  0  0  0  0  0  0
    9.1350    0.8780   20.6030 O   0  0  0  0  0  0  0  0  0  0  0  0
    9.4750   -0.7590   22.1320 N   0  0  0  0  0  0  0  0  0  0  0  0
   10.8330   -0.4530   22.3810 C   0  0  0  0  0  0  0  0  0  0  0  0
   11.8280   -1.3720   22.0220 C   0  0  0  0  0  0  0  0  0  0  0  0
   13.1850   -1.0200   22.1140 C   0  0  0  0  0  0  0  0  0  0  0  0
   13.5470    0.2460   22.6040 C   0  0  0  0  0  0  0  0  0  0  0  0
   12.5530    1.1590   22.9890 C   0  0  0  0  0  0  0  0  0  0  0  0
   11.1970    0.8120   22.8700 C   0  0  0  0  0  0  0  0  0  0  0  0
  1  2  1  0
  2  3  1  0
  3  4  1  0
  4  5  1  0
  5  6  2  0
  5 10  1  0
  6  7  1  0
  7  8  2  0
  8  9  1  0
  9 10  2  0
 10 11  1  0
 11 12  1  0
 12 13  2  0
 12 14  1  0
 14 15  1  0
 15 16  2  0
 15 20  1  0
 16 17  1  0
 17 18  2  0
 18 19  1  0
 19 20  2  0
M  END
