WPC0918_minimised.pdb
     RDKit          3D

 23 24  0  0  0  0  0  0  0  0999 V2000
   14.2130    5.0040   22.5950 C   0  0  0  0  0  0  0  0  0  0  0  0
   13.5610    3.7390   22.0120 C   0  0  0  0  0  0  0  0  0  0  0  0
   12.3460    4.0980   21.1470 C   0  0  0  0  0  0  0  0  0  0  0  0
   13.1250    2.7750   23.1060 C   0  0  0  0  0  0  0  0  0  0  0  0
   12.3520    3.0780   23.9980 O   0  0  0  0  0  0  0  0  0  0  0  0
   13.7320    1.5660   22.9510 O   0  0  0  0  0  0  0  0  0  0  0  0
   13.3660    0.4640   23.7860 C   0  0  0  0  0  0  0  0  0  0  0  0
   11.9510    0.0280   23.4500 C   0  0  0  0  0  0  0  0  0  0  0  0
   11.7210   -0.8050   22.3430 C   0  0  0  0  0  0  0  0  0  0  0  0
   10.4080   -1.0770   21.9370 C   0  0  0  0  0  0  0  0  0  0  0  0
    9.3250   -0.5130   22.6260 C   0  0  0  0  0  0  0  0  0  0  0  0
    8.0220   -0.5920   22.1010 N   0  0  0  0  0  0  0  0  0  0  0  0
    7.6810   -0.2210   20.8270 C   0  0  0  0  0  0  0  0  0  0  0  0
    8.4740    0.0050   19.9330 O   0  0  0  0  0  0  0  0  0  0  0  0
    6.3320   -0.0850   20.6680 N   0  0  0  0  0  0  0  0  0  0  0  0
    5.7020    0.5110   19.5500 C   0  0  0  0  0  0  0  0  0  0  0  0
    4.7410    1.5060   19.7690 C   0  0  0  0  0  0  0  0  0  0  0  0
    4.2140    2.1570   18.6470 C   0  0  0  0  0  0  0  0  0  0  0  0
    4.6640    1.8040   17.3660 C   0  0  0  0  0  0  0  0  0  0  0  0
    5.5610    0.8170   17.1440 N   0  0  0  0  0  0  0  0  0  0  0  0
    6.0820    0.2030   18.2260 C   0  0  0  0  0  0  0  0  0  0  0  0
    9.5490    0.2390   23.7860 C   0  0  0  0  0  0  0  0  0  0  0  0
   10.8610    0.5020   24.2040 C   0  0  0  0  0  0  0  0  0  0  0  0
  1  2  1  0
  2  3  1  0
  2  4  1  0
  4  5  2  0
  4  6  1  0
  6  7  1  0
  7  8  1  0
  8 23  2  0
  8  9  1  0
  9 10  2  0
 10 11  1  0
 11 12  1  0
 11 22  2  0
 12 13  1  0
 13 14  2  0
 13 15  1  0
 15 16  1  0
 16 17  2  0
 16 21  1  0
 17 18  1  0
 18 19  2  0
 19 20  1  0
 20 21  2  0
 22 23  1  0
M  END
