WPC0824_minimised.pdb
     RDKit          3D

 21 22  0  0  0  0  0  0  0  0999 V2000
   11.6020    4.9710   23.3580 C   0  0  0  0  0  0  0  0  0  0  0  0
   11.8330    3.5680   23.5720 O   0  0  0  0  0  0  0  0  0  0  0  0
   13.0640    3.0590   23.2780 C   0  0  0  0  0  0  0  0  0  0  0  0
   14.0440    3.7720   23.1350 O   0  0  0  0  0  0  0  0  0  0  0  0
   13.1590    1.5440   23.5420 C   0  0  0  0  0  0  0  0  0  0  0  0
   11.8900    0.7650   23.2370 C   0  0  0  0  0  0  0  0  0  0  0  0
   11.8310   -0.0770   22.1160 C   0  0  0  0  0  0  0  0  0  0  0  0
   10.6130   -0.6700   21.7590 C   0  0  0  0  0  0  0  0  0  0  0  0
    9.4530   -0.4070   22.5020 C   0  0  0  0  0  0  0  0  0  0  0  0
    8.1790   -0.7250   21.9880 N   0  0  0  0  0  0  0  0  0  0  0  0
    7.7710   -0.3710   20.7290 C   0  0  0  0  0  0  0  0  0  0  0  0
    8.5170   -0.0750   19.8160 O   0  0  0  0  0  0  0  0  0  0  0  0
    6.4120   -0.3050   20.6060 N   0  0  0  0  0  0  0  0  0  0  0  0
    5.7520    0.3380   19.5320 C   0  0  0  0  0  0  0  0  0  0  0  0
    4.8250    1.3520   19.8080 C   0  0  0  0  0  0  0  0  0  0  0  0
    4.3020    2.0690   18.7240 C   0  0  0  0  0  0  0  0  0  0  0  0
    4.7300    1.7690   17.4220 C   0  0  0  0  0  0  0  0  0  0  0  0
    5.5930    0.7660   17.1450 N   0  0  0  0  0  0  0  0  0  0  0  0
    6.1020    0.0810   18.1880 C   0  0  0  0  0  0  0  0  0  0  0  0
    9.5370    0.3350   23.6880 C   0  0  0  0  0  0  0  0  0  0  0  0
   10.7590    0.9060   24.0650 C   0  0  0  0  0  0  0  0  0  0  0  0
  1  2  1  0
  2  3  1  0
  3  4  2  0
  3  5  1  0
  5  6  1  0
  6 21  2  0
  6  7  1  0
  7  8  2  0
  8  9  1  0
  9 10  1  0
  9 20  2  0
 10 11  1  0
 11 12  2  0
 11 13  1  0
 13 14  1  0
 14 15  2  0
 14 19  1  0
 15 16  1  0
 16 17  2  0
 17 18  1  0
 18 19  2  0
 20 21  1  0
M  END
