WPC0042_minimised.pdb
     RDKit          3D

 21 22  0  0  0  0  0  0  0  0999 V2000
    8.6920    0.2380   19.9640 O   0  0  0  0  0  0  0  0  0  0  0  0
    8.0160   -0.0060   20.9410 C   0  0  0  0  0  0  0  0  0  0  0  0
    8.5490   -0.2130   22.1830 N   0  0  0  0  0  0  0  0  0  0  0  0
    9.9180   -0.0230   22.4760 C   0  0  0  0  0  0  0  0  0  0  0  0
   10.8890   -0.8550   21.8940 C   0  0  0  0  0  0  0  0  0  0  0  0
   12.2550   -0.5870   22.0820 C   0  0  0  0  0  0  0  0  0  0  0  0
   12.6510    0.5170   22.8560 C   0  0  0  0  0  0  0  0  0  0  0  0
   11.6800    1.3440   23.4440 C   0  0  0  0  0  0  0  0  0  0  0  0
   10.3150    1.0710   23.2580 C   0  0  0  0  0  0  0  0  0  0  0  0
    6.6490   -0.0370   20.8720 N   0  0  0  0  0  0  0  0  0  0  0  0
    5.9230    0.5030   19.7770 C   0  0  0  0  0  0  0  0  0  0  0  0
    6.2720    0.1820   18.4470 C   0  0  0  0  0  0  0  0  0  0  0  0
    5.7220    0.7680   17.3650 N   0  0  0  0  0  0  0  0  0  0  0  0
    4.8140    1.7440   17.5830 C   0  0  0  0  0  0  0  0  0  0  0  0
    4.3740    2.1030   18.8640 C   0  0  0  0  0  0  0  0  0  0  0  0
    4.9260    1.4730   19.9820 C   0  0  0  0  0  0  0  0  0  0  0  0
    4.4420    1.7920   21.2290 O   0  0  0  0  0  0  0  0  0  0  0  0
    5.1170    2.7080   22.1170 C   0  0  0  0  0  0  0  0  0  0  0  0
    5.5920    3.8080   21.5100 F   0  0  0  0  0  0  0  0  0  0  0  0
    6.1480    2.1150   22.7580 F   0  0  0  0  0  0  0  0  0  0  0  0
    4.2540    3.1010   23.0780 F   0  0  0  0  0  0  0  0  0  0  0  0
  1  2  2  0
  2  3  1  0
  2 10  1  0
  3  4  1  0
  4  5  2  0
  4  9  1  0
  5  6  1  0
  6  7  2  0
  7  8  1  0
  8  9  2  0
 10 11  1  0
 11 12  2  0
 11 16  1  0
 12 13  1  0
 13 14  2  0
 14 15  1  0
 15 16  2  0
 16 17  1  0
 17 18  1  0
 18 20  1  0
 18 21  1  0
 18 19  1  0
M  END
