WPC0772_minimised.pdb
     RDKit          3D

 24 25  0  0  0  0  0  0  0  0999 V2000
   12.2360    6.0970   24.8660 C   0  0  0  0  0  0  0  0  0  0  0  0
   11.8580    5.1430   23.7140 C   0  0  0  0  0  0  0  0  0  0  0  0
   10.4260    4.5850   23.8400 C   0  0  0  0  0  0  0  0  0  0  0  0
   12.7890    4.0370   23.6900 O   0  0  0  0  0  0  0  0  0  0  0  0
   13.0690    3.4700   22.4740 C   0  0  0  0  0  0  0  0  0  0  0  0
   12.8070    3.9990   21.4100 O   0  0  0  0  0  0  0  0  0  0  0  0
   14.0680    2.3180   22.5680 C   0  0  0  0  0  0  0  0  0  0  0  0
   13.6350    1.1130   23.4320 C   0  0  0  0  0  0  0  0  0  0  0  0
   12.2380    0.6280   23.1210 C   0  0  0  0  0  0  0  0  0  0  0  0
   12.0150   -0.2600   22.0580 C   0  0  0  0  0  0  0  0  0  0  0  0
   10.7060   -0.6530   21.7500 C   0  0  0  0  0  0  0  0  0  0  0  0
    9.6220   -0.1410   22.4780 C   0  0  0  0  0  0  0  0  0  0  0  0
    8.2990   -0.3670   22.0490 N   0  0  0  0  0  0  0  0  0  0  0  0
    7.8590   -0.1220   20.7770 C   0  0  0  0  0  0  0  0  0  0  0  0
    8.5880    0.0930   19.8280 O   0  0  0  0  0  0  0  0  0  0  0  0
    6.4970   -0.0810   20.6800 N   0  0  0  0  0  0  0  0  0  0  0  0
    5.7990    0.4630   19.5780 C   0  0  0  0  0  0  0  0  0  0  0  0
    4.8370    1.4520   19.8120 C   0  0  0  0  0  0  0  0  0  0  0  0
    4.2720    2.0860   18.7000 C   0  0  0  0  0  0  0  0  0  0  0  0
    4.6970    1.7340   17.4110 C   0  0  0  0  0  0  0  0  0  0  0  0
    5.5880    0.7460   17.1730 N   0  0  0  0  0  0  0  0  0  0  0  0
    6.1380    0.1400   18.2450 C   0  0  0  0  0  0  0  0  0  0  0  0
    9.8490    0.7010   23.5750 C   0  0  0  0  0  0  0  0  0  0  0  0
   11.1580    1.0790   23.9000 C   0  0  0  0  0  0  0  0  0  0  0  0
  1  2  1  0
  2  3  1  0
  2  4  1  0
  4  5  1  0
  5  6  2  0
  5  7  1  0
  7  8  1  0
  8  9  1  0
  9 24  2  0
  9 10  1  0
 10 11  2  0
 11 12  1  0
 12 13  1  0
 12 23  2  0
 13 14  1  0
 14 15  2  0
 14 16  1  0
 16 17  1  0
 17 18  2  0
 17 22  1  0
 18 19  1  0
 19 20  2  0
 20 21  1  0
 21 22  2  0
 23 24  1  0
M  END
