WPC0938_minimised.pdb
     RDKit          3D

 23 24  0  0  0  0  0  0  0  0999 V2000
   12.4560    6.9200   25.2110 C   0  0  0  0  0  0  0  0  0  0  0  0
   11.3380    5.5190   24.7700 S   0  0  0  0  0  0  0  0  0  0  0  0
   12.3730    4.6390   23.5910 C   0  0  0  0  0  0  0  0  0  0  0  0
   13.6020    5.3280   22.6950 S   0  0  0  0  0  0  0  0  0  0  0  0
   12.2340    3.2870   23.7840 N   0  0  0  0  0  0  0  0  0  0  0  0
   13.1540    2.3260   23.1670 C   0  0  0  0  0  0  0  0  0  0  0  0
   13.0680    0.8980   23.7400 C   0  0  0  0  0  0  0  0  0  0  0  0
   11.7330    0.2640   23.4200 C   0  0  0  0  0  0  0  0  0  0  0  0
   11.6070   -0.5220   22.2650 C   0  0  0  0  0  0  0  0  0  0  0  0
   10.3390   -0.9430   21.8490 C   0  0  0  0  0  0  0  0  0  0  0  0
    9.1990   -0.5560   22.5680 C   0  0  0  0  0  0  0  0  0  0  0  0
    7.9170   -0.7140   22.0060 N   0  0  0  0  0  0  0  0  0  0  0  0
    7.5920   -0.3260   20.7330 C   0  0  0  0  0  0  0  0  0  0  0  0
    8.3940   -0.0700   19.8550 O   0  0  0  0  0  0  0  0  0  0  0  0
    6.2430   -0.1940   20.5600 N   0  0  0  0  0  0  0  0  0  0  0  0
    5.6350    0.4530   19.4610 C   0  0  0  0  0  0  0  0  0  0  0  0
    4.6830    1.4500   19.7030 C   0  0  0  0  0  0  0  0  0  0  0  0
    4.1910    2.1600   18.6020 C   0  0  0  0  0  0  0  0  0  0  0  0
    4.6740    1.8690   17.3180 C   0  0  0  0  0  0  0  0  0  0  0  0
    5.5610    0.8790   17.0710 N   0  0  0  0  0  0  0  0  0  0  0  0
    6.0410    0.2010   18.1330 C   0  0  0  0  0  0  0  0  0  0  0  0
    9.3330    0.1360   23.7800 C   0  0  0  0  0  0  0  0  0  0  0  0
   10.6050    0.5360   24.2150 C   0  0  0  0  0  0  0  0  0  0  0  0
  1  2  1  0
  2  3  1  0
  3  4  2  0
  3  5  1  0
  5  6  1  0
  6  7  1  0
  7  8  1  0
  8 23  2  0
  8  9  1  0
  9 10  2  0
 10 11  1  0
 11 12  1  0
 11 22  2  0
 12 13  1  0
 13 14  2  0
 13 15  1  0
 15 16  1  0
 16 17  2  0
 16 21  1  0
 17 18  1  0
 18 19  2  0
 19 20  1  0
 20 21  2  0
 22 23  1  0
M  END
