WPC0649_minimised.pdb
     RDKit          3D

 23 24  0  0  0  0  0  0  0  0999 V2000
   13.9730    5.6310   21.9770 C   0  0  0  0  0  0  0  0  0  0  0  0
   12.9250    4.6870   21.3690 C   0  0  0  0  0  0  0  0  0  0  0  0
   13.3830    3.3480   21.5450 O   0  0  0  0  0  0  0  0  0  0  0  0
   13.2320    2.7440   22.7470 C   0  0  0  0  0  0  0  0  0  0  0  0
   12.6300    3.2200   23.6960 O   0  0  0  0  0  0  0  0  0  0  0  0
   13.8380    1.5300   22.7270 O   0  0  0  0  0  0  0  0  0  0  0  0
   13.4690    0.5440   23.6900 C   0  0  0  0  0  0  0  0  0  0  0  0
   12.0420    0.1100   23.4080 C   0  0  0  0  0  0  0  0  0  0  0  0
   11.7740   -0.7740   22.3490 C   0  0  0  0  0  0  0  0  0  0  0  0
   10.4480   -1.0380   21.9800 C   0  0  0  0  0  0  0  0  0  0  0  0
    9.3910   -0.4190   22.6620 C   0  0  0  0  0  0  0  0  0  0  0  0
    8.0750   -0.5000   22.1670 N   0  0  0  0  0  0  0  0  0  0  0  0
    7.7200   -0.1780   20.8850 C   0  0  0  0  0  0  0  0  0  0  0  0
    8.5050    0.0040   19.9740 O   0  0  0  0  0  0  0  0  0  0  0  0
    6.3700   -0.0290   20.7350 N   0  0  0  0  0  0  0  0  0  0  0  0
    5.7420    0.5450   19.6060 C   0  0  0  0  0  0  0  0  0  0  0  0
    4.7910    1.5530   19.8040 C   0  0  0  0  0  0  0  0  0  0  0  0
    4.2790    2.1960   18.6710 C   0  0  0  0  0  0  0  0  0  0  0  0
    4.7350    1.8250   17.3980 C   0  0  0  0  0  0  0  0  0  0  0  0
    5.6140    0.8180   17.1940 N   0  0  0  0  0  0  0  0  0  0  0  0
    6.1180    0.2080   18.2860 C   0  0  0  0  0  0  0  0  0  0  0  0
    9.6520    0.3950   23.7720 C   0  0  0  0  0  0  0  0  0  0  0  0
   10.9760    0.6600   24.1460 C   0  0  0  0  0  0  0  0  0  0  0  0
  1  2  1  0
  2  3  1  0
  3  4  1  0
  4  5  2  0
  4  6  1  0
  6  7  1  0
  7  8  1  0
  8 23  2  0
  8  9  1  0
  9 10  2  0
 10 11  1  0
 11 12  1  0
 11 22  2  0
 12 13  1  0
 13 14  2  0
 13 15  1  0
 15 16  1  0
 16 17  2  0
 16 21  1  0
 17 18  1  0
 18 19  2  0
 19 20  1  0
 20 21  2  0
 22 23  1  0
M  END
