WPC0359_minimised.pdb
     RDKit          3D

 20 21  0  0  0  0  0  0  0  0999 V2000
    8.7760   -2.3940   24.0430 C   0  0  0  0  0  0  0  0  0  0  0  0
    8.7420   -2.9430   22.6250 C   0  0  0  0  0  0  0  0  0  0  0  0
    8.2340   -4.0080   22.3290 O   0  0  0  0  0  0  0  0  0  0  0  0
    9.3080   -2.1830   21.6260 N   0  0  0  0  0  0  0  0  0  0  0  0
    9.6330   -0.7940   21.6910 N   0  0  0  0  0  0  0  0  0  0  0  0
    8.7880    0.1420   21.0810 C   0  0  0  0  0  0  0  0  0  0  0  0
    9.1210    1.2860   20.8390 O   0  0  0  0  0  0  0  0  0  0  0  0
    7.5640   -0.3400   20.6830 N   0  0  0  0  0  0  0  0  0  0  0  0
    6.6740    0.2850   19.7750 C   0  0  0  0  0  0  0  0  0  0  0  0
    5.7970    1.2900   20.2030 C   0  0  0  0  0  0  0  0  0  0  0  0
    4.9980    1.9180   19.2350 C   0  0  0  0  0  0  0  0  0  0  0  0
    5.1150    1.5410   17.8860 C   0  0  0  0  0  0  0  0  0  0  0  0
    5.9380    0.5510   17.4730 N   0  0  0  0  0  0  0  0  0  0  0  0
    6.7060   -0.0470   18.4070 C   0  0  0  0  0  0  0  0  0  0  0  0
   10.9470   -0.4440   22.1120 C   0  0  0  0  0  0  0  0  0  0  0  0
   12.0600   -1.1560   21.6360 C   0  0  0  0  0  0  0  0  0  0  0  0
   13.3640   -0.7500   21.9590 C   0  0  0  0  0  0  0  0  0  0  0  0
   13.5640    0.3770   22.7710 C   0  0  0  0  0  0  0  0  0  0  0  0
   12.4580    1.0860   23.2630 C   0  0  0  0  0  0  0  0  0  0  0  0
   11.1550    0.6750   22.9400 C   0  0  0  0  0  0  0  0  0  0  0  0
  1  2  1  0
  2  4  1  0
  2  3  2  0
  4  5  1  0
  5  6  1  0
  5 15  1  0
  6  8  1  0
  6  7  2  0
  8  9  1  0
  9 10  2  0
  9 14  1  0
 10 11  1  0
 11 12  2  0
 12 13  1  0
 13 14  2  0
 15 16  2  0
 15 20  1  0
 16 17  1  0
 17 18  2  0
 18 19  1  0
 19 20  2  0
M  END
