WPC0807_minimised.pdb
     RDKit          3D

 24 26  0  0  0  0  0  0  0  0999 V2000
    8.4970   -0.0090   19.8100 O   0  0  0  0  0  0  0  0  0  0  0  0
    7.7080   -0.2810   20.6960 C   0  0  0  0  0  0  0  0  0  0  0  0
    8.0560   -0.6290   21.9730 N   0  0  0  0  0  0  0  0  0  0  0  0
    9.3240   -0.3710   22.5270 C   0  0  0  0  0  0  0  0  0  0  0  0
   10.4910   -0.7230   21.8340 C   0  0  0  0  0  0  0  0  0  0  0  0
   11.7310   -0.2210   22.2460 C   0  0  0  0  0  0  0  0  0  0  0  0
   11.8020    0.6230   23.3660 C   0  0  0  0  0  0  0  0  0  0  0  0
   13.1130    1.2820   23.7210 C   0  0  0  0  0  0  0  0  0  0  0  0
   13.3510    2.9160   22.8850 S   0  0  0  0  0  0  0  0  0  0  0  0
   12.3670    4.0960   23.7370 C   0  0  0  0  0  0  0  0  0  0  0  0
   11.0880    4.0040   24.2320 N   0  0  0  0  0  0  0  0  0  0  0  0
   10.8790    5.1580   24.8080 N   0  0  0  0  0  0  0  0  0  0  0  0
   12.0000    5.9740   24.7300 C   0  0  0  0  0  0  0  0  0  0  0  0
   12.1460    7.0950   25.1760 O   0  0  0  0  0  0  0  0  0  0  0  0
   12.9290    5.2350   24.0470 N   0  0  0  0  0  0  0  0  0  0  0  0
   10.6510    0.8660   24.1370 C   0  0  0  0  0  0  0  0  0  0  0  0
    9.4080    0.3810   23.7070 C   0  0  0  0  0  0  0  0  0  0  0  0
    6.3560   -0.1960   20.5290 N   0  0  0  0  0  0  0  0  0  0  0  0
    5.7240    0.4460   19.4410 C   0  0  0  0  0  0  0  0  0  0  0  0
    4.7660    1.4340   19.6980 C   0  0  0  0  0  0  0  0  0  0  0  0
    4.2580    2.1480   18.6050 C   0  0  0  0  0  0  0  0  0  0  0  0
    4.7350    1.8730   17.3160 C   0  0  0  0  0  0  0  0  0  0  0  0
    5.6280    0.8920   17.0550 N   0  0  0  0  0  0  0  0  0  0  0  0
    6.1190    0.2070   18.1070 C   0  0  0  0  0  0  0  0  0  0  0  0
  1  2  2  0
  2  3  1  0
  2 18  1  0
  3  4  1  0
  4  5  2  0
  4 17  1  0
  5  6  1  0
  6  7  2  0
  7  8  1  0
  7 16  1  0
  8  9  1  0
  9 10  1  0
 10 11  1  0
 10 15  2  0
 11 12  2  0
 12 13  1  0
 13 14  2  0
 13 15  1  0
 16 17  2  0
 18 19  1  0
 19 20  2  0
 19 24  1  0
 20 21  1  0
 21 22  2  0
 22 23  1  0
 23 24  2  0
M  END
