WPC0142_minimised.pdb
     RDKit          3D

 20 21  0  0  0  0  0  0  0  0999 V2000
    4.6030    4.2370   22.4470 N   0  0  0  0  0  0  0  0  0  0  0  0
    4.8540    2.9710   22.0530 C   0  0  0  0  0  0  0  0  0  0  0  0
    5.0400    2.0500   22.8260 O   0  0  0  0  0  0  0  0  0  0  0  0
    4.8430    2.8910   20.7010 N   0  0  0  0  0  0  0  0  0  0  0  0
    5.0180    1.8240   19.8000 C   0  0  0  0  0  0  0  0  0  0  0  0
    4.3370    1.9560   18.5930 C   0  0  0  0  0  0  0  0  0  0  0  0
    4.6500    1.1150   17.5310 C   0  0  0  0  0  0  0  0  0  0  0  0
    5.5330    0.1030   17.6220 N   0  0  0  0  0  0  0  0  0  0  0  0
    6.1730   -0.0460   18.8020 C   0  0  0  0  0  0  0  0  0  0  0  0
    5.9790    0.8050   19.9170 C   0  0  0  0  0  0  0  0  0  0  0  0
    6.8160    0.7380   21.0660 N   0  0  0  0  0  0  0  0  0  0  0  0
    8.1720    0.5360   21.0370 C   0  0  0  0  0  0  0  0  0  0  0  0
    8.7500    0.2180   20.0190 O   0  0  0  0  0  0  0  0  0  0  0  0
    8.8200    0.7530   22.2220 N   0  0  0  0  0  0  0  0  0  0  0  0
   10.2210    0.6900   22.3950 C   0  0  0  0  0  0  0  0  0  0  0  0
   10.9430   -0.4500   21.9980 C   0  0  0  0  0  0  0  0  0  0  0  0
   12.3410   -0.4820   22.1220 C   0  0  0  0  0  0  0  0  0  0  0  0
   13.0210    0.6270   22.6510 C   0  0  0  0  0  0  0  0  0  0  0  0
   12.3020    1.7680   23.0420 C   0  0  0  0  0  0  0  0  0  0  0  0
   10.9030    1.7980   22.9190 C   0  0  0  0  0  0  0  0  0  0  0  0
  1  2  1  0
  2  3  2  0
  2  4  1  0
  4  5  1  0
  5  6  2  0
  5 10  1  0
  6  7  1  0
  7  8  2  0
  8  9  1  0
  9 10  2  0
 10 11  1  0
 11 12  1  0
 12 13  2  0
 12 14  1  0
 14 15  1  0
 15 16  2  0
 15 20  1  0
 16 17  1  0
 17 18  2  0
 18 19  1  0
 19 20  2  0
M  END
