WPC0364_minimised.pdb
     RDKit          3D

 17 18  0  0  0  0  0  0  0  0999 V2000
    8.2420   -0.6080   23.5970 C   0  0  0  0  0  0  0  0  0  0  0  0
    8.9800   -0.1960   22.3900 N   0  0  0  0  0  0  0  0  0  0  0  0
    8.3520    0.1010   21.1900 C   0  0  0  0  0  0  0  0  0  0  0  0
    8.9710    0.4300   20.1990 O   0  0  0  0  0  0  0  0  0  0  0  0
    6.9800    0.0310   21.1440 N   0  0  0  0  0  0  0  0  0  0  0  0
    6.2090    0.4610   20.0310 C   0  0  0  0  0  0  0  0  0  0  0  0
    5.2250    1.4390   20.2180 C   0  0  0  0  0  0  0  0  0  0  0  0
    4.6030    1.9660   19.0780 C   0  0  0  0  0  0  0  0  0  0  0  0
    4.9820    1.5110   17.8050 C   0  0  0  0  0  0  0  0  0  0  0  0
    5.8890    0.5270   17.6150 N   0  0  0  0  0  0  0  0  0  0  0  0
    6.5010    0.0360   18.7140 C   0  0  0  0  0  0  0  0  0  0  0  0
   10.3850   -0.0420   22.5030 C   0  0  0  0  0  0  0  0  0  0  0  0
   11.2500   -1.0020   21.9520 C   0  0  0  0  0  0  0  0  0  0  0  0
   12.6400   -0.7960   21.9720 C   0  0  0  0  0  0  0  0  0  0  0  0
   13.1680    0.3680   22.5540 C   0  0  0  0  0  0  0  0  0  0  0  0
   12.3050    1.3280   23.1050 C   0  0  0  0  0  0  0  0  0  0  0  0
   10.9160    1.1230   23.0810 C   0  0  0  0  0  0  0  0  0  0  0  0
  1  2  1  0
  2  3  1  0
  2 12  1  0
  3  5  1  0
  3  4  2  0
  5  6  1  0
  6  7  2  0
  6 11  1  0
  7  8  1  0
  8  9  2  0
  9 10  1  0
 10 11  2  0
 12 13  2  0
 12 17  1  0
 13 14  1  0
 14 15  2  0
 15 16  1  0
 16 17  2  0
M  END
