WPC0375_minimised.pdb
     RDKit          3D

 20 21  0  0  0  0  0  0  0  0999 V2000
   12.5310    4.3190   23.5460 C   0  0  0  0  0  0  0  0  0  0  0  0
   12.7700    3.4060   22.3340 C   0  0  0  0  0  0  0  0  0  0  0  0
   13.7670    2.3430   22.5960 N   0  0  0  0  0  0  0  0  0  0  0  0
   13.3880    1.2490   23.5070 C   0  0  0  0  0  0  0  0  0  0  0  0
   12.0480    0.6270   23.1880 C   0  0  0  0  0  0  0  0  0  0  0  0
   11.9120   -0.2170   22.0760 C   0  0  0  0  0  0  0  0  0  0  0  0
   10.6460   -0.7050   21.7280 C   0  0  0  0  0  0  0  0  0  0  0  0
    9.5140   -0.3270   22.4670 C   0  0  0  0  0  0  0  0  0  0  0  0
    8.2170   -0.5970   21.9850 N   0  0  0  0  0  0  0  0  0  0  0  0
    7.7990   -0.2660   20.7250 C   0  0  0  0  0  0  0  0  0  0  0  0
    8.5420    0.0240   19.8060 O   0  0  0  0  0  0  0  0  0  0  0  0
    6.4370   -0.2220   20.6060 N   0  0  0  0  0  0  0  0  0  0  0  0
    5.7640    0.3940   19.5250 C   0  0  0  0  0  0  0  0  0  0  0  0
    4.8150    1.3880   19.7910 C   0  0  0  0  0  0  0  0  0  0  0  0
    4.2870    2.0920   18.7010 C   0  0  0  0  0  0  0  0  0  0  0  0
    4.7330    1.7990   17.4040 C   0  0  0  0  0  0  0  0  0  0  0  0
    5.6130    0.8080   17.1350 N   0  0  0  0  0  0  0  0  0  0  0  0
    6.1240    0.1350   18.1850 C   0  0  0  0  0  0  0  0  0  0  0  0
    9.6590    0.4580   23.6180 C   0  0  0  0  0  0  0  0  0  0  0  0
   10.9270    0.9280   23.9840 C   0  0  0  0  0  0  0  0  0  0  0  0
  1  2  1  0
  2  3  1  0
  3  4  1  0
  4  5  1  0
  5 20  2  0
  5  6  1  0
  6  7  2  0
  7  8  1  0
  8  9  1  0
  8 19  2  0
  9 10  1  0
 10 11  2  0
 10 12  1  0
 12 13  1  0
 13 14  2  0
 13 18  1  0
 14 15  1  0
 15 16  2  0
 16 17  1  0
 17 18  2  0
 19 20  1  0
M  END
