WPC0853_minimised.pdb
     RDKit          3D

 20 21  0  0  1  0  0  0  0  0999 V2000
   12.3390    4.1360   23.2740 C   0  0  0  0  0  0  0  0  0  0  0  0
   13.4810    3.2460   22.7360 C   0  0  0  0  0  0  0  0  0  0  0  0
   13.4860    1.7740   23.2330 C   0  0  2  0  0  0  0  0  0  0  0  0
   14.6640    1.1050   22.6790 N   0  0  0  0  0  0  0  0  0  0  0  0
   12.1880    1.0240   22.9760 C   0  0  0  0  0  0  0  0  0  0  0  0
   12.0510    0.1110   21.9150 C   0  0  0  0  0  0  0  0  0  0  0  0
   10.8070   -0.4800   21.6580 C   0  0  0  0  0  0  0  0  0  0  0  0
    9.6880   -0.1460   22.4350 C   0  0  0  0  0  0  0  0  0  0  0  0
    8.3880   -0.5010   22.0170 N   0  0  0  0  0  0  0  0  0  0  0  0
    7.9070   -0.2370   20.7620 C   0  0  0  0  0  0  0  0  0  0  0  0
    8.6060    0.0340   19.8050 O   0  0  0  0  0  0  0  0  0  0  0  0
    6.5410   -0.2270   20.6870 N   0  0  0  0  0  0  0  0  0  0  0  0
    5.8320    0.3590   19.6110 C   0  0  0  0  0  0  0  0  0  0  0  0
    4.9080    1.3770   19.8790 C   0  0  0  0  0  0  0  0  0  0  0  0
    4.3600    2.0620   18.7870 C   0  0  0  0  0  0  0  0  0  0  0  0
    4.7600    1.7280   17.4860 C   0  0  0  0  0  0  0  0  0  0  0  0
    5.6120    0.7130   17.2170 N   0  0  0  0  0  0  0  0  0  0  0  0
    6.1450    0.0580   18.2680 C   0  0  0  0  0  0  0  0  0  0  0  0
    9.8420    0.6780   23.5550 C   0  0  0  0  0  0  0  0  0  0  0  0
   11.0920    1.2460   23.8340 C   0  0  0  0  0  0  0  0  0  0  0  0
  1  2  1  0
  2  3  1  0
  3  4  1  6
  3  5  1  0
  5 20  2  0
  5  6  1  0
  6  7  2  0
  7  8  1  0
  8  9  1  0
  8 19  2  0
  9 10  1  0
 10 11  2  0
 10 12  1  0
 12 13  1  0
 13 14  2  0
 13 18  1  0
 14 15  1  0
 15 16  2  0
 16 17  1  0
 17 18  2  0
 19 20  1  0
M  END
