WPC0464_minimised.pdb
     RDKit          3D

 24 26  0  0  0  0  0  0  0  0999 V2000
   15.0440    3.0510   22.4960 N   0  0  0  0  0  0  0  0  0  0  0  0
   13.6810    3.4140   22.6490 N   0  0  0  0  0  0  0  0  0  0  0  0
   12.7090    2.5660   23.1500 C   0  0  0  0  0  0  0  0  0  0  0  0
   12.9690    1.1220   23.5240 C   0  0  0  0  0  0  0  0  0  0  0  0
   11.7290    0.2680   23.3320 C   0  0  0  0  0  0  0  0  0  0  0  0
   11.6450   -0.6180   22.2450 C   0  0  0  0  0  0  0  0  0  0  0  0
   10.4060   -1.1670   21.8950 C   0  0  0  0  0  0  0  0  0  0  0  0
    9.2520   -0.8130   22.6090 C   0  0  0  0  0  0  0  0  0  0  0  0
    7.9750   -1.0280   22.0540 N   0  0  0  0  0  0  0  0  0  0  0  0
    7.6370   -0.6240   20.7880 C   0  0  0  0  0  0  0  0  0  0  0  0
    8.4290   -0.3930   19.8940 O   0  0  0  0  0  0  0  0  0  0  0  0
    6.2920   -0.4340   20.6390 N   0  0  0  0  0  0  0  0  0  0  0  0
    5.6940    0.2570   19.5570 C   0  0  0  0  0  0  0  0  0  0  0  0
    4.7790    1.2830   19.8270 C   0  0  0  0  0  0  0  0  0  0  0  0
    4.2970    2.0280   18.7420 C   0  0  0  0  0  0  0  0  0  0  0  0
    4.7490    1.7380   17.4460 C   0  0  0  0  0  0  0  0  0  0  0  0
    5.6020    0.7260   17.1740 N   0  0  0  0  0  0  0  0  0  0  0  0
    6.0750    0.0160   18.2190 C   0  0  0  0  0  0  0  0  0  0  0  0
    9.3590   -0.0460   23.7770 C   0  0  0  0  0  0  0  0  0  0  0  0
   10.6030    0.4840   24.1480 C   0  0  0  0  0  0  0  0  0  0  0  0
   11.5770    3.1960   23.1410 N   0  0  0  0  0  0  0  0  0  0  0  0
   11.7710    4.4170   22.5520 N   0  0  0  0  0  0  0  0  0  0  0  0
   13.0870    4.5830   22.2110 C   0  0  0  0  0  0  0  0  0  0  0  0
   13.5900    5.5140   21.6080 O   0  0  0  0  0  0  0  0  0  0  0  0
  1  2  1  0
  2  3  1  0
  2 23  1  0
  3  4  1  0
  3 21  2  0
  4  5  1  0
  5  6  2  0
  5 20  1  0
  6  7  1  0
  7  8  2  0
  8  9  1  0
  8 19  1  0
  9 10  1  0
 10 12  1  0
 10 11  2  0
 12 13  1  0
 13 14  2  0
 13 18  1  0
 14 15  1  0
 15 16  2  0
 16 17  1  0
 17 18  2  0
 19 20  2  0
 21 22  1  0
 22 23  1  0
 23 24  2  0
M  END
