WPC0789_minimised.pdb
     RDKit          3D

 23 24  0  0  0  0  0  0  0  0999 V2000
   14.0660    6.2220   21.4790 N   0  0  0  0  0  0  0  0  0  0  0  0
   13.8260    5.3230   22.1600 C   0  0  0  0  0  0  0  0  0  0  0  0
   13.5780    4.2030   23.0680 C   0  0  0  0  0  0  0  0  0  0  0  0
   12.2340    4.3260   23.6440 C   0  0  0  0  0  0  0  0  0  0  0  0
   11.2090    4.4460   24.1620 N   0  0  0  0  0  0  0  0  0  0  0  0
   13.9110    2.5800   22.2410 S   0  0  0  0  0  0  0  0  0  0  0  0
   13.4800    1.2810   23.4750 C   0  0  0  0  0  0  0  0  0  0  0  0
   12.1130    0.7050   23.1940 C   0  0  0  0  0  0  0  0  0  0  0  0
   11.9420   -0.1680   22.1080 C   0  0  0  0  0  0  0  0  0  0  0  0
   10.6590   -0.6210   21.7770 C   0  0  0  0  0  0  0  0  0  0  0  0
    9.5440   -0.1830   22.5070 C   0  0  0  0  0  0  0  0  0  0  0  0
    8.2380   -0.4400   22.0440 N   0  0  0  0  0  0  0  0  0  0  0  0
    7.8180   -0.1700   20.7690 C   0  0  0  0  0  0  0  0  0  0  0  0
    8.5610    0.0680   19.8370 O   0  0  0  0  0  0  0  0  0  0  0  0
    6.4560   -0.1320   20.6490 N   0  0  0  0  0  0  0  0  0  0  0  0
    5.7770    0.4500   19.5530 C   0  0  0  0  0  0  0  0  0  0  0  0
    4.8210    1.4430   19.7990 C   0  0  0  0  0  0  0  0  0  0  0  0
    4.2860    2.1180   18.6950 C   0  0  0  0  0  0  0  0  0  0  0  0
    4.7320    1.8000   17.4050 C   0  0  0  0  0  0  0  0  0  0  0  0
    5.6170    0.8080   17.1550 N   0  0  0  0  0  0  0  0  0  0  0  0
    6.1370    0.1630   18.2180 C   0  0  0  0  0  0  0  0  0  0  0  0
    9.7220    0.6310   23.6340 C   0  0  0  0  0  0  0  0  0  0  0  0
   11.0080    1.0670   23.9850 C   0  0  0  0  0  0  0  0  0  0  0  0
  1  2  3  0
  2  3  1  0
  3  4  1  0
  3  6  1  0
  4  5  3  0
  6  7  1  0
  7  8  1  0
  8 23  2  0
  8  9  1  0
  9 10  2  0
 10 11  1  0
 11 12  1  0
 11 22  2  0
 12 13  1  0
 13 14  2  0
 13 15  1  0
 15 16  1  0
 16 17  2  0
 16 21  1  0
 17 18  1  0
 18 19  2  0
 19 20  1  0
 20 21  2  0
 22 23  1  0
M  END
