WPC0833_minimised.pdb
     RDKit          3D

 20 21  0  0  0  0  0  0  0  0999 V2000
    8.7170    0.2190   19.8790 O   0  0  0  0  0  0  0  0  0  0  0  0
    8.0240    0.0680   20.8660 C   0  0  0  0  0  0  0  0  0  0  0  0
    8.5230   -0.0180   22.1380 N   0  0  0  0  0  0  0  0  0  0  0  0
    9.8440    0.3440   22.4780 C   0  0  0  0  0  0  0  0  0  0  0  0
   10.9350   -0.2210   21.7960 C   0  0  0  0  0  0  0  0  0  0  0  0
   12.2260    0.2890   21.9950 C   0  0  0  0  0  0  0  0  0  0  0  0
   12.4230    1.3580   22.8810 C   0  0  0  0  0  0  0  0  0  0  0  0
   14.0520    2.0320   23.0520 S   0  0  0  0  0  0  0  0  0  0  0  0
   13.9840    3.7250   22.3160 C   0  0  0  0  0  0  0  0  0  0  0  0
   13.1720    4.7580   23.1100 C   0  0  0  0  0  0  0  0  0  0  0  0
   13.6380    6.0620   22.7710 O   0  0  0  0  0  0  0  0  0  0  0  0
   11.3470    1.8740   23.6190 C   0  0  0  0  0  0  0  0  0  0  0  0
   10.0540    1.3690   23.4130 C   0  0  0  0  0  0  0  0  0  0  0  0
    6.6580    0.0480   20.8020 N   0  0  0  0  0  0  0  0  0  0  0  0
    5.9240    0.5200   19.6870 C   0  0  0  0  0  0  0  0  0  0  0  0
    4.9590    1.5140   19.8900 C   0  0  0  0  0  0  0  0  0  0  0  0
    4.3780    2.0980   18.7580 C   0  0  0  0  0  0  0  0  0  0  0  0
    4.7920    1.6970   17.4810 C   0  0  0  0  0  0  0  0  0  0  0  0
    5.6780    0.6960   17.2740 N   0  0  0  0  0  0  0  0  0  0  0  0
    6.2400    0.1360   18.3650 C   0  0  0  0  0  0  0  0  0  0  0  0
  1  2  2  0
  2  3  1  0
  2 14  1  0
  3  4  1  0
  4  5  2  0
  4 13  1  0
  5  6  1  0
  6  7  2  0
  7  8  1  0
  7 12  1  0
  8  9  1  0
  9 10  1  0
 10 11  1  0
 12 13  2  0
 14 15  1  0
 15 16  2  0
 15 20  1  0
 16 17  1  0
 17 18  2  0
 18 19  1  0
 19 20  2  0
M  END
