WPC1294_minimised.pdb
     RDKit          3D

 23 25  0  0  0  0  0  0  0  0999 V2000
    8.6150   -0.1210   19.7820 O   0  0  0  0  0  0  0  0  0  0  0  0
    7.9120   -0.3930   20.7340 C   0  0  0  0  0  0  0  0  0  0  0  0
    6.5470   -0.3080   20.6830 N   0  0  0  0  0  0  0  0  0  0  0  0
    5.8370    0.3090   19.6250 C   0  0  0  0  0  0  0  0  0  0  0  0
    4.9080    1.3150   19.9210 C   0  0  0  0  0  0  0  0  0  0  0  0
    4.3430    2.0160   18.8470 C   0  0  0  0  0  0  0  0  0  0  0  0
    4.7300    1.7060   17.5350 C   0  0  0  0  0  0  0  0  0  0  0  0
    5.5910    0.7060   17.2390 N   0  0  0  0  0  0  0  0  0  0  0  0
    6.1380    0.0360   18.2730 C   0  0  0  0  0  0  0  0  0  0  0  0
    8.4000   -0.7460   21.9620 N   0  0  0  0  0  0  0  0  0  0  0  0
    9.7440   -0.5470   22.3360 C   0  0  0  0  0  0  0  0  0  0  0  0
   10.7870   -1.1810   21.6490 C   0  0  0  0  0  0  0  0  0  0  0  0
   12.1220   -0.8260   21.9000 C   0  0  0  0  0  0  0  0  0  0  0  0
   12.4100    0.1570   22.8610 C   0  0  0  0  0  0  0  0  0  0  0  0
   11.3650    0.7500   23.5930 C   0  0  0  0  0  0  0  0  0  0  0  0
   11.6510    1.7510   24.6940 C   0  0  0  0  0  0  0  0  0  0  0  0
   11.6250    3.1630   24.2680 N   0  0  0  0  0  0  0  0  0  0  0  0
   12.8830    3.6340   23.6460 C   0  0  0  0  0  0  0  0  0  0  0  0
   12.8220    5.0930   23.1460 C   0  0  0  0  0  0  0  0  0  0  0  0
   11.6740    6.0880   24.1850 S   0  0  0  0  0  0  0  0  0  0  0  0
   10.1580    5.1480   23.7060 C   0  0  0  0  0  0  0  0  0  0  0  0
   10.3760    3.6160   23.6160 C   0  0  0  0  0  0  0  0  0  0  0  0
   10.0350    0.3890   23.3300 C   0  0  0  0  0  0  0  0  0  0  0  0
  1  2  2  0
  2  3  1  0
  2 10  1  0
  3  4  1  0
  4  5  2  0
  4  9  1  0
  5  6  1  0
  6  7  2  0
  7  8  1  0
  8  9  2  0
 10 11  1  0
 11 23  1  0
 11 12  2  0
 12 13  1  0
 13 14  2  0
 14 15  1  0
 15 16  1  0
 15 23  2  0
 16 17  1  0
 17 18  1  0
 17 22  1  0
 18 19  1  0
 19 20  1  0
 20 21  1  0
 21 22  1  0
M  END
