WPC1313_minimised.pdb
     RDKit          3D

 24 25  0  0  0  0  0  0  0  0999 V2000
   12.5470    6.8850   24.9670 C   0  0  0  0  0  0  0  0  0  0  0  0
   11.7220    5.8510   24.1670 C   0  0  0  0  0  0  0  0  0  0  0  0
   12.7470    4.8030   23.1130 S   0  0  0  0  0  0  0  0  0  0  0  0
   13.9530    4.5040   23.8520 O   0  0  0  0  0  0  0  0  0  0  0  0
   12.8530    5.4230   21.8140 O   0  0  0  0  0  0  0  0  0  0  0  0
   11.7820    3.2990   23.0120 C   0  0  0  0  0  0  0  0  0  0  0  0
   11.7470    2.5600   24.3640 C   0  0  0  0  0  0  0  0  0  0  0  0
   10.0480    2.1250   24.8650 S   0  0  0  0  0  0  0  0  0  0  0  0
    9.8250    0.5100   24.1760 C   0  0  0  0  0  0  0  0  0  0  0  0
   10.5550   -0.5930   24.6450 C   0  0  0  0  0  0  0  0  0  0  0  0
   10.3230   -1.8710   24.1020 C   0  0  0  0  0  0  0  0  0  0  0  0
    9.3340   -2.0440   23.1190 C   0  0  0  0  0  0  0  0  0  0  0  0
    8.6000   -0.9360   22.6740 C   0  0  0  0  0  0  0  0  0  0  0  0
    7.5190   -1.0820   21.7970 N   0  0  0  0  0  0  0  0  0  0  0  0
    7.3950   -0.4340   20.6040 C   0  0  0  0  0  0  0  0  0  0  0  0
    8.3150    0.0170   19.9490 O   0  0  0  0  0  0  0  0  0  0  0  0
    6.0780   -0.2960   20.2690 N   0  0  0  0  0  0  0  0  0  0  0  0
    5.5780    0.4730   19.1990 C   0  0  0  0  0  0  0  0  0  0  0  0
    4.5760    1.4210   19.4400 C   0  0  0  0  0  0  0  0  0  0  0  0
    4.1620    2.2150   18.3640 C   0  0  0  0  0  0  0  0  0  0  0  0
    4.7630    2.0470   17.1080 C   0  0  0  0  0  0  0  0  0  0  0  0
    5.7090    1.1110   16.8630 N   0  0  0  0  0  0  0  0  0  0  0  0
    6.1170    0.3580   17.9030 C   0  0  0  0  0  0  0  0  0  0  0  0
    8.8540    0.3380   23.1910 C   0  0  0  0  0  0  0  0  0  0  0  0
  1  2  1  0
  2  3  1  0
  3  4  2  0
  3  5  2  0
  3  6  1  0
  6  7  1  0
  7  8  1  0
  8  9  1  0
  9 24  2  0
  9 10  1  0
 10 11  2  0
 11 12  1  0
 12 13  2  0
 13 14  1  0
 13 24  1  0
 14 15  1  0
 15 16  2  0
 15 17  1  0
 17 18  1  0
 18 19  2  0
 18 23  1  0
 19 20  1  0
 20 21  2  0
 21 22  1  0
 22 23  2  0
M  END
