WPC1651_minimised.pdb
     RDKit          3D

 23 25  0  0  0  0  0  0  0  0999 V2000
    8.4150   -0.1770   19.6420 O   0  0  0  0  0  0  0  0  0  0  0  0
    7.6810   -0.2650   20.6070 C   0  0  0  0  0  0  0  0  0  0  0  0
    6.3340   -0.0420   20.5410 N   0  0  0  0  0  0  0  0  0  0  0  0
    5.6680    0.5620   19.4490 C   0  0  0  0  0  0  0  0  0  0  0  0
    4.7280    1.5680   19.7040 C   0  0  0  0  0  0  0  0  0  0  0  0
    4.1890    2.2480   18.6050 C   0  0  0  0  0  0  0  0  0  0  0  0
    4.6210    1.9260   17.3110 C   0  0  0  0  0  0  0  0  0  0  0  0
    5.4900    0.9230   17.0540 N   0  0  0  0  0  0  0  0  0  0  0  0
    6.0040    0.2650   18.1100 C   0  0  0  0  0  0  0  0  0  0  0  0
    8.1150   -0.5410   21.8720 N   0  0  0  0  0  0  0  0  0  0  0  0
    9.4710   -0.4920   22.2440 C   0  0  0  0  0  0  0  0  0  0  0  0
   10.4120   -1.3270   21.6250 C   0  0  0  0  0  0  0  0  0  0  0  0
   11.7830   -1.1450   21.8650 C   0  0  0  0  0  0  0  0  0  0  0  0
   12.2060   -0.1430   22.7510 C   0  0  0  0  0  0  0  0  0  0  0  0
   11.2570    0.6520   23.4190 C   0  0  0  0  0  0  0  0  0  0  0  0
   11.6980    1.7030   24.4120 C   0  0  0  0  0  0  0  0  0  0  0  0
   11.9350    3.0110   23.8030 N   0  0  0  0  0  0  0  0  0  0  0  0
   13.0870    3.4100   23.1570 C   0  0  0  0  0  0  0  0  0  0  0  0
   12.8130    4.6760   22.7500 C   0  0  0  0  0  0  0  0  0  0  0  0
   13.8740    5.7070   21.8470 Cl  0  0  0  0  0  0  0  0  0  0  0  0
   11.4990    5.0060   23.1740 C   0  0  0  0  0  0  0  0  0  0  0  0
   10.9890    3.9950   23.8590 N   0  0  0  0  0  0  0  0  0  0  0  0
    9.8910    0.4840   23.1540 C   0  0  0  0  0  0  0  0  0  0  0  0
  1  2  2  0
  2  3  1  0
  2 10  1  0
  3  4  1  0
  4  5  2  0
  4  9  1  0
  5  6  1  0
  6  7  2  0
  7  8  1  0
  8  9  2  0
 10 11  1  0
 11 23  1  0
 11 12  2  0
 12 13  1  0
 13 14  2  0
 14 15  1  0
 15 16  1  0
 15 23  2  0
 16 17  1  0
 17 18  1  0
 17 22  1  0
 18 19  2  0
 19 20  1  0
 19 21  1  0
 21 22  2  0
M  END
