WPC1242_minimised.pdb
     RDKit          3D

 23 25  0  0  0  0  0  0  0  0999 V2000
    9.7860    5.7550   23.0620 N   0  0  0  0  0  0  0  0  0  0  0  0
   10.7190    4.8480   23.4000 C   0  0  0  0  0  0  0  0  0  0  0  0
   12.0200    4.8010   22.8730 C   0  0  0  0  0  0  0  0  0  0  0  0
   12.5890    3.6440   23.3100 C   0  0  0  0  0  0  0  0  0  0  0  0
   11.5740    3.0330   24.0300 N   0  0  0  0  0  0  0  0  0  0  0  0
   11.6000    1.6740   24.5680 C   0  0  0  0  0  0  0  0  0  0  0  0
   11.2150    0.6320   23.5430 C   0  0  0  0  0  0  0  0  0  0  0  0
   12.2010   -0.0810   22.8380 C   0  0  0  0  0  0  0  0  0  0  0  0
   11.8270   -1.0710   21.9170 C   0  0  0  0  0  0  0  0  0  0  0  0
   10.4660   -1.3130   21.6730 C   0  0  0  0  0  0  0  0  0  0  0  0
    9.4850   -0.5520   22.3240 C   0  0  0  0  0  0  0  0  0  0  0  0
    8.1330   -0.6480   21.9470 N   0  0  0  0  0  0  0  0  0  0  0  0
    7.6860   -0.3420   20.6920 C   0  0  0  0  0  0  0  0  0  0  0  0
    8.4160   -0.1850   19.7330 O   0  0  0  0  0  0  0  0  0  0  0  0
    6.3310   -0.1740   20.6250 N   0  0  0  0  0  0  0  0  0  0  0  0
    5.6580    0.4380   19.5410 C   0  0  0  0  0  0  0  0  0  0  0  0
    4.7280    1.4520   19.8040 C   0  0  0  0  0  0  0  0  0  0  0  0
    4.1940    2.1430   18.7090 C   0  0  0  0  0  0  0  0  0  0  0  0
    4.6140    1.8180   17.4120 C   0  0  0  0  0  0  0  0  0  0  0  0
    5.4750    0.8100   17.1470 N   0  0  0  0  0  0  0  0  0  0  0  0
    5.9890    0.1450   18.2000 C   0  0  0  0  0  0  0  0  0  0  0  0
    9.8580    0.4050   23.2730 C   0  0  0  0  0  0  0  0  0  0  0  0
   10.4400    3.7910   24.1150 N   0  0  0  0  0  0  0  0  0  0  0  0
  1  2  1  0
  2 23  2  0
  2  3  1  0
  3  4  2  0
  4  5  1  0
  5  6  1  0
  5 23  1  0
  6  7  1  0
  7 22  1  0
  7  8  2  0
  8  9  1  0
  9 10  2  0
 10 11  1  0
 11 12  1  0
 11 22  2  0
 12 13  1  0
 13 14  2  0
 13 15  1  0
 15 16  1  0
 16 17  2  0
 16 21  1  0
 17 18  1  0
 18 19  2  0
 19 20  1  0
 20 21  2  0
M  END
