WPC1241_minimised.pdb
     RDKit          3D

 24 26  0  0  0  0  0  0  0  0999 V2000
    8.4770   -0.2670   19.5150 O   0  0  0  0  0  0  0  0  0  0  0  0
    7.8930   -0.1050   20.5670 C   0  0  0  0  0  0  0  0  0  0  0  0
    6.5510    0.1420   20.6280 N   0  0  0  0  0  0  0  0  0  0  0  0
    5.7710    0.6270   19.5520 C   0  0  0  0  0  0  0  0  0  0  0  0
    4.8530    1.6530   19.8080 C   0  0  0  0  0  0  0  0  0  0  0  0
    4.1970    2.2310   18.7140 C   0  0  0  0  0  0  0  0  0  0  0  0
    4.4970    1.7910   17.4170 C   0  0  0  0  0  0  0  0  0  0  0  0
    5.3330    0.7600   17.1640 N   0  0  0  0  0  0  0  0  0  0  0  0
    5.9610    0.2010   18.2180 C   0  0  0  0  0  0  0  0  0  0  0  0
    8.5000   -0.0910   21.7900 N   0  0  0  0  0  0  0  0  0  0  0  0
    9.8930   -0.0190   21.9930 C   0  0  0  0  0  0  0  0  0  0  0  0
   10.7460   -1.0140   21.4970 C   0  0  0  0  0  0  0  0  0  0  0  0
   12.1340   -0.8940   21.6580 C   0  0  0  0  0  0  0  0  0  0  0  0
   12.6620    0.2030   22.3550 C   0  0  0  0  0  0  0  0  0  0  0  0
   11.8090    1.1890   22.8850 C   0  0  0  0  0  0  0  0  0  0  0  0
   12.3860    2.2480   23.8120 C   0  0  0  0  0  0  0  0  0  0  0  0
   12.1230    3.6730   23.5580 N   0  0  0  0  0  0  0  0  0  0  0  0
   10.9680    4.3260   23.9110 C   0  0  0  0  0  0  0  0  0  0  0  0
    9.9760    3.7830   24.3700 O   0  0  0  0  0  0  0  0  0  0  0  0
   11.2330    5.6540   23.8000 C   0  0  0  0  0  0  0  0  0  0  0  0
   12.5390    5.8080   23.4360 O   0  0  0  0  0  0  0  0  0  0  0  0
   13.1200    4.5810   23.2620 C   0  0  0  0  0  0  0  0  0  0  0  0
   14.3230    4.3620   23.2580 O   0  0  0  0  0  0  0  0  0  0  0  0
   10.4240    1.0750   22.6860 C   0  0  0  0  0  0  0  0  0  0  0  0
  1  2  2  0
  2  3  1  0
  2 10  1  0
  3  4  1  0
  4  5  2  0
  4  9  1  0
  5  6  1  0
  6  7  2  0
  7  8  1  0
  8  9  2  0
 10 11  1  0
 11 24  1  0
 11 12  2  0
 12 13  1  0
 13 14  2  0
 14 15  1  0
 15 16  1  0
 15 24  2  0
 16 17  1  0
 17 18  1  0
 17 22  1  0
 18 19  2  0
 18 20  1  0
 20 21  1  0
 21 22  1  0
 22 23  2  0
M  END
