WPC1238_minimised.pdb
     RDKit          3D

 18 19  0  0  0  0  0  0  0  0999 V2000
    8.8290    0.4760   20.2690 O   0  0  0  0  0  0  0  0  0  0  0  0
    8.0910    0.3660   21.2270 C   0  0  0  0  0  0  0  0  0  0  0  0
    6.7380    0.2130   21.0940 N   0  0  0  0  0  0  0  0  0  0  0  0
    6.0280    0.5760   19.9240 C   0  0  0  0  0  0  0  0  0  0  0  0
    5.0230    1.5440   20.0340 C   0  0  0  0  0  0  0  0  0  0  0  0
    4.4640    2.0410   18.8520 C   0  0  0  0  0  0  0  0  0  0  0  0
    4.9230    1.5670   17.6160 C   0  0  0  0  0  0  0  0  0  0  0  0
    5.8480    0.5880   17.4970 N   0  0  0  0  0  0  0  0  0  0  0  0
    6.4020    0.1230   18.6380 C   0  0  0  0  0  0  0  0  0  0  0  0
    8.5200    0.4630   22.5220 N   0  0  0  0  0  0  0  0  0  0  0  0
    9.7710    1.0120   22.8700 C   0  0  0  0  0  0  0  0  0  0  0  0
   10.9620    0.3350   22.5640 C   0  0  0  0  0  0  0  0  0  0  0  0
   12.1970    0.9620   22.7880 C   0  0  0  0  0  0  0  0  0  0  0  0
   12.2370    2.2710   23.2960 C   0  0  0  0  0  0  0  0  0  0  0  0
   11.0460    2.9520   23.6140 C   0  0  0  0  0  0  0  0  0  0  0  0
   11.0920    4.3740   24.1590 C   0  0  0  0  0  0  0  0  0  0  0  0
    9.8880    5.5180   23.3480 S   0  0  0  0  0  0  0  0  0  0  0  0
    9.8150    2.3070   23.4080 C   0  0  0  0  0  0  0  0  0  0  0  0
  1  2  2  0
  2 10  1  0
  2  3  1  0
  3  4  1  0
  4  5  2  0
  4  9  1  0
  5  6  1  0
  6  7  2  0
  7  8  1  0
  8  9  2  0
 10 11  1  0
 11 12  2  0
 11 18  1  0
 12 13  1  0
 13 14  2  0
 14 15  1  0
 15 16  1  0
 15 18  2  0
 16 17  1  0
M  END
