WPC1384_minimised.pdb
     RDKit          3D

 23 25  0  0  0  0  0  0  0  0999 V2000
    8.9800    3.7180   22.3630 C   0  0  0  0  0  0  0  0  0  0  0  0
    9.7700    4.5780   23.0130 C   0  0  0  0  0  0  0  0  0  0  0  0
    9.3550    6.0200   23.1260 C   0  0  0  0  0  0  0  0  0  0  0  0
   11.0910    4.2210   23.6280 C   0  0  0  0  0  0  0  0  0  0  0  0
   11.0360    2.8230   24.8260 S   0  0  0  0  0  0  0  0  0  0  0  0
   11.1020    1.3490   23.8340 C   0  0  0  0  0  0  0  0  0  0  0  0
   12.3030    0.8850   23.2720 C   0  0  0  0  0  0  0  0  0  0  0  0
   12.2830   -0.1920   22.3690 C   0  0  0  0  0  0  0  0  0  0  0  0
   11.0590   -0.7890   22.0200 C   0  0  0  0  0  0  0  0  0  0  0  0
    9.8670   -0.3330   22.6030 C   0  0  0  0  0  0  0  0  0  0  0  0
    8.6110   -0.7390   22.1170 N   0  0  0  0  0  0  0  0  0  0  0  0
    8.1260   -0.3000   20.9150 C   0  0  0  0  0  0  0  0  0  0  0  0
    8.8140    0.1930   20.0460 O   0  0  0  0  0  0  0  0  0  0  0  0
    6.7660   -0.3870   20.7920 N   0  0  0  0  0  0  0  0  0  0  0  0
    6.0520    0.2400   19.7420 C   0  0  0  0  0  0  0  0  0  0  0  0
    5.1240    1.2460   20.0410 C   0  0  0  0  0  0  0  0  0  0  0  0
    4.5700    1.9610   18.9690 C   0  0  0  0  0  0  0  0  0  0  0  0
    4.9580    1.6560   17.6560 C   0  0  0  0  0  0  0  0  0  0  0  0
    5.8220    0.6600   17.3590 N   0  0  0  0  0  0  0  0  0  0  0  0
    6.3690   -0.0140   18.3900 C   0  0  0  0  0  0  0  0  0  0  0  0
    9.8990    0.6990   23.5450 C   0  0  0  0  0  0  0  0  0  0  0  0
   12.1070    5.2630   24.0530 C   0  0  0  0  0  0  0  0  0  0  0  0
   12.4010    4.3530   22.8870 C   0  0  0  0  0  0  0  0  0  0  0  0
  1  2  2  0
  2  3  1  0
  2  4  1  0
  4 22  1  0
  4  5  1  0
  4 23  1  0
  5  6  1  0
  6 21  1  0
  6  7  2  0
  7  8  1  0
  8  9  2  0
  9 10  1  0
 10 11  1  0
 10 21  2  0
 11 12  1  0
 12 13  2  0
 12 14  1  0
 14 15  1  0
 15 16  2  0
 15 20  1  0
 16 17  1  0
 17 18  2  0
 18 19  1  0
 19 20  2  0
 22 23  1  0
M  END
