WPC1260_minimised.pdb
     RDKit          3D

 23 24  0  0  0  0  0  0  0  0999 V2000
   12.4420    7.2940   25.3410 N   0  0  0  0  0  0  0  0  0  0  0  0
   11.8940    5.9450   25.1980 C   0  0  0  0  0  0  0  0  0  0  0  0
   11.1880    5.7280   23.8480 C   0  0  0  0  0  0  0  0  0  0  0  0
   10.2690    4.4830   23.8420 C   0  0  0  0  0  0  0  0  0  0  0  0
   10.9640    3.1370   24.1730 C   0  0  0  0  0  0  0  0  0  0  0  0
   11.9580    2.7060   23.0730 C   0  0  0  0  0  0  0  0  0  0  0  0
   12.6820    1.0210   23.3440 S   0  0  0  0  0  0  0  0  0  0  0  0
   11.4000   -0.2010   23.0610 C   0  0  0  0  0  0  0  0  0  0  0  0
   11.6920   -1.5580   23.2810 C   0  0  0  0  0  0  0  0  0  0  0  0
   10.6990   -2.5430   23.1630 C   0  0  0  0  0  0  0  0  0  0  0  0
    9.4040   -2.1780   22.7730 C   0  0  0  0  0  0  0  0  0  0  0  0
    9.1220   -0.8370   22.4880 C   0  0  0  0  0  0  0  0  0  0  0  0
    7.8450   -0.4800   22.0270 N   0  0  0  0  0  0  0  0  0  0  0  0
    7.5930    0.1100   20.8240 C   0  0  0  0  0  0  0  0  0  0  0  0
    8.4460    0.4240   20.0170 O   0  0  0  0  0  0  0  0  0  0  0  0
    6.2580    0.2980   20.6140 N   0  0  0  0  0  0  0  0  0  0  0  0
    5.6760    0.8710   19.4630 C   0  0  0  0  0  0  0  0  0  0  0  0
    4.6660    1.8280   19.6080 C   0  0  0  0  0  0  0  0  0  0  0  0
    4.1860    2.4420   18.4460 C   0  0  0  0  0  0  0  0  0  0  0  0
    4.7310    2.0950   17.2020 C   0  0  0  0  0  0  0  0  0  0  0  0
    5.6670    1.1300   17.0480 N   0  0  0  0  0  0  0  0  0  0  0  0
    6.1370    0.5480   18.1690 C   0  0  0  0  0  0  0  0  0  0  0  0
   10.1110    0.1480   22.6280 C   0  0  0  0  0  0  0  0  0  0  0  0
  1  2  1  0
  2  3  1  0
  3  4  1  0
  4  5  1  0
  5  6  1  0
  6  7  1  0
  7  8  1  0
  8 23  2  0
  8  9  1  0
  9 10  2  0
 10 11  1  0
 11 12  2  0
 12 13  1  0
 12 23  1  0
 13 14  1  0
 14 15  2  0
 14 16  1  0
 16 17  1  0
 17 18  2  0
 17 22  1  0
 18 19  1  0
 19 20  2  0
 20 21  1  0
 21 22  2  0
M  END
