WPC1106_minimised.pdb
     RDKit          3D

 23 25  0  0  0  0  0  0  0  0999 V2000
    8.4920   -0.1510   19.6850 O   0  0  0  0  0  0  0  0  0  0  0  0
    7.8070   -0.2480   20.6830 C   0  0  0  0  0  0  0  0  0  0  0  0
    6.4480   -0.0910   20.6630 N   0  0  0  0  0  0  0  0  0  0  0  0
    5.7280    0.4650   19.5780 C   0  0  0  0  0  0  0  0  0  0  0  0
    4.7940    1.4740   19.8360 C   0  0  0  0  0  0  0  0  0  0  0  0
    4.2120    2.1190   18.7380 C   0  0  0  0  0  0  0  0  0  0  0  0
    4.5920    1.7550   17.4390 C   0  0  0  0  0  0  0  0  0  0  0  0
    5.4510    0.7430   17.1790 N   0  0  0  0  0  0  0  0  0  0  0  0
    6.0140    0.1260   18.2360 C   0  0  0  0  0  0  0  0  0  0  0  0
    8.3120   -0.4710   21.9340 N   0  0  0  0  0  0  0  0  0  0  0  0
    9.6840   -0.3870   22.2430 C   0  0  0  0  0  0  0  0  0  0  0  0
   10.6130   -1.2070   21.5890 C   0  0  0  0  0  0  0  0  0  0  0  0
   11.9890   -1.0130   21.7830 C   0  0  0  0  0  0  0  0  0  0  0  0
   12.4310   -0.0120   22.6610 C   0  0  0  0  0  0  0  0  0  0  0  0
   11.4990    0.7770   23.3570 C   0  0  0  0  0  0  0  0  0  0  0  0
   11.9630    1.7830   24.3880 C   0  0  0  0  0  0  0  0  0  0  0  0
   11.7570    3.2620   23.9930 C   0  0  0  0  0  0  0  0  0  0  0  0
   12.6260    3.7350   22.9000 N   0  0  0  0  0  0  0  0  0  0  0  0
   14.0850    3.6070   23.0270 C   0  0  0  0  0  0  0  0  0  0  0  0
   14.6800    4.5860   22.0050 C   0  0  0  0  0  0  0  0  0  0  0  0
   13.4800    5.3540   21.4540 C   0  0  0  0  0  0  0  0  0  0  0  0
   12.3790    5.1140   22.4900 C   0  0  0  0  0  0  0  0  0  0  0  0
   10.1250    0.5880   23.1430 C   0  0  0  0  0  0  0  0  0  0  0  0
  1  2  2  0
  2  3  1  0
  2 10  1  0
  3  4  1  0
  4  5  2  0
  4  9  1  0
  5  6  1  0
  6  7  2  0
  7  8  1  0
  8  9  2  0
 10 11  1  0
 11 23  1  0
 11 12  2  0
 12 13  1  0
 13 14  2  0
 14 15  1  0
 15 16  1  0
 15 23  2  0
 16 17  1  0
 17 18  1  0
 18 19  1  0
 18 22  1  0
 19 20  1  0
 20 21  1  0
 21 22  1  0
M  END
