WPC1399_minimised.pdb
     RDKit          3D

 24 26  0  0  1  0  0  0  0  0999 V2000
    8.5710    0.1820   19.8300 O   0  0  0  0  0  0  0  0  0  0  0  0
    7.9200   -0.0360   20.8320 C   0  0  0  0  0  0  0  0  0  0  0  0
    6.5540    0.0390   20.8300 N   0  0  0  0  0  0  0  0  0  0  0  0
    5.8010    0.5440   19.7390 C   0  0  0  0  0  0  0  0  0  0  0  0
    4.8590    1.5540   19.9680 C   0  0  0  0  0  0  0  0  0  0  0  0
    4.2620    2.1530   18.8510 C   0  0  0  0  0  0  0  0  0  0  0  0
    4.6350    1.7440   17.5610 C   0  0  0  0  0  0  0  0  0  0  0  0
    5.4990    0.7300   17.3310 N   0  0  0  0  0  0  0  0  0  0  0  0
    6.0750    0.1570   18.4070 C   0  0  0  0  0  0  0  0  0  0  0  0
    8.4880   -0.3360   22.0400 N   0  0  0  0  0  0  0  0  0  0  0  0
    9.8830   -0.3110   22.2520 C   0  0  0  0  0  0  0  0  0  0  0  0
   10.7080   -1.2190   21.5750 C   0  0  0  0  0  0  0  0  0  0  0  0
   12.1030   -1.0770   21.6230 C   0  0  0  0  0  0  0  0  0  0  0  0
   12.6730   -0.0330   22.3660 C   0  0  0  0  0  0  0  0  0  0  0  0
   11.8510    0.8510   23.0860 C   0  0  0  0  0  0  0  0  0  0  0  0
   12.4810    1.9050   23.9740 C   0  0  0  0  0  0  0  0  0  0  0  0
   12.3080    3.3030   23.5500 N   0  0  0  0  0  0  0  0  0  0  0  0
   13.3330    4.2110   23.3620 C   0  0  0  0  0  0  0  0  0  0  0  0
   14.5290    4.0380   23.4790 O   0  0  0  0  0  0  0  0  0  0  0  0
   12.7000    5.4860   23.0660 C   0  0  0  0  0  0  0  0  0  0  0  0
   11.3670    5.3230   23.0470 C   0  0  0  0  0  0  0  0  0  0  0  0
   10.9850    3.9050   23.3530 C   0  0  2  0  0  0  0  0  0  0  0  0
   10.2090    3.9090   24.5370 O   0  0  0  0  0  0  0  0  0  0  0  0
   10.4530    0.7010   23.0340 C   0  0  0  0  0  0  0  0  0  0  0  0
  1  2  2  0
  2  3  1  0
  2 10  1  0
  3  4  1  0
  4  5  2  0
  4  9  1  0
  5  6  1  0
  6  7  2  0
  7  8  1  0
  8  9  2  0
 10 11  1  0
 11 24  1  0
 11 12  2  0
 12 13  1  0
 13 14  2  0
 14 15  1  0
 15 16  1  0
 15 24  2  0
 16 17  1  0
 17 18  1  0
 17 22  1  0
 18 19  2  0
 18 20  1  0
 20 21  2  0
 21 22  1  0
 22 23  1  1
M  END
