WPC1667_minimised.pdb
     RDKit          3D

 23 24  0  0  0  0  0  0  0  0999 V2000
   12.3000    6.7710   25.4820 O   0  0  0  0  0  0  0  0  0  0  0  0
   11.9690    6.2380   24.4440 C   0  0  0  0  0  0  0  0  0  0  0  0
   10.7370    6.3410   23.9250 O   0  0  0  0  0  0  0  0  0  0  0  0
   12.9090    5.4720   23.5050 C   0  0  0  0  0  0  0  0  0  0  0  0
   12.2140    4.7350   22.4120 N   0  0  0  0  0  0  0  0  0  0  0  0
   11.3680    3.5790   22.7890 C   0  0  0  0  0  0  0  0  0  0  0  0
   12.1560    2.4300   23.4530 C   0  0  0  0  0  0  0  0  0  0  0  0
   11.7130    1.0680   22.9480 C   0  0  0  0  0  0  0  0  0  0  0  0
   12.6600    0.1260   22.5100 C   0  0  0  0  0  0  0  0  0  0  0  0
   12.2390   -1.1070   21.9850 C   0  0  0  0  0  0  0  0  0  0  0  0
   10.8680   -1.3890   21.8700 C   0  0  0  0  0  0  0  0  0  0  0  0
    9.9230   -0.4450   22.2930 C   0  0  0  0  0  0  0  0  0  0  0  0
    8.5530   -0.6200   22.0150 N   0  0  0  0  0  0  0  0  0  0  0  0
    8.0000   -0.2530   20.8190 C   0  0  0  0  0  0  0  0  0  0  0  0
    8.6600    0.0740   19.8530 O   0  0  0  0  0  0  0  0  0  0  0  0
    6.6320   -0.2340   20.7980 N   0  0  0  0  0  0  0  0  0  0  0  0
    5.8770    0.3210   19.7340 C   0  0  0  0  0  0  0  0  0  0  0  0
    4.9360    1.3210   20.0080 C   0  0  0  0  0  0  0  0  0  0  0  0
    4.3330    1.9640   18.9180 C   0  0  0  0  0  0  0  0  0  0  0  0
    4.6920    1.6000   17.6110 C   0  0  0  0  0  0  0  0  0  0  0  0
    5.5640    0.6030   17.3380 N   0  0  0  0  0  0  0  0  0  0  0  0
    6.1510   -0.0070   18.3870 C   0  0  0  0  0  0  0  0  0  0  0  0
   10.3430    0.7650   22.8540 C   0  0  0  0  0  0  0  0  0  0  0  0
  1  2  2  0
  2  3  1  0
  2  4  1  0
  4  5  1  0
  5  6  1  0
  6  7  1  0
  7  8  1  0
  8 23  2  0
  8  9  1  0
  9 10  2  0
 10 11  1  0
 11 12  2  0
 12 13  1  0
 12 23  1  0
 13 14  1  0
 14 15  2  0
 14 16  1  0
 16 17  1  0
 17 18  2  0
 17 22  1  0
 18 19  1  0
 19 20  2  0
 20 21  1  0
 21 22  2  0
M  END
