WPC1572_minimised.pdb
     RDKit          3D

 23 24  0  0  0  0  0  0  0  0999 V2000
   12.7830    7.3100   25.7270 C   0  0  0  0  0  0  0  0  0  0  0  0
   12.4790    6.2060   24.7280 C   0  0  0  0  0  0  0  0  0  0  0  0
   13.2470    5.2950   24.4890 O   0  0  0  0  0  0  0  0  0  0  0  0
   11.2840    6.3930   24.1050 O   0  0  0  0  0  0  0  0  0  0  0  0
   10.8350    5.4400   23.1130 C   0  0  0  0  0  0  0  0  0  0  0  0
    9.9120    4.4030   23.7780 C   0  0  0  0  0  0  0  0  0  0  0  0
   10.6310    3.2300   24.4950 C   0  0  0  0  0  0  0  0  0  0  0  0
   10.7640    1.9870   23.6340 C   0  0  0  0  0  0  0  0  0  0  0  0
   12.0140    1.5270   23.1820 C   0  0  0  0  0  0  0  0  0  0  0  0
   12.0930    0.3780   22.3750 C   0  0  0  0  0  0  0  0  0  0  0  0
   10.9200   -0.3050   22.0050 C   0  0  0  0  0  0  0  0  0  0  0  0
    9.6750    0.1520   22.4650 C   0  0  0  0  0  0  0  0  0  0  0  0
    8.4620   -0.4140   22.0300 N   0  0  0  0  0  0  0  0  0  0  0  0
    7.9770   -0.2200   20.7690 C   0  0  0  0  0  0  0  0  0  0  0  0
    8.6710    0.0620   19.8130 O   0  0  0  0  0  0  0  0  0  0  0  0
    6.6130   -0.2730   20.6930 N   0  0  0  0  0  0  0  0  0  0  0  0
    5.8830    0.3080   19.6290 C   0  0  0  0  0  0  0  0  0  0  0  0
    4.9540    1.3170   19.9150 C   0  0  0  0  0  0  0  0  0  0  0  0
    4.3790    1.9990   18.8350 C   0  0  0  0  0  0  0  0  0  0  0  0
    4.7570    1.6680   17.5250 C   0  0  0  0  0  0  0  0  0  0  0  0
    5.6240    0.6700   17.2410 N   0  0  0  0  0  0  0  0  0  0  0  0
    6.1820    0.0180   18.2800 C   0  0  0  0  0  0  0  0  0  0  0  0
    9.6030    1.2800   23.2890 C   0  0  0  0  0  0  0  0  0  0  0  0
  1  2  1  0
  2  3  2  0
  2  4  1  0
  4  5  1  0
  5  6  1  0
  6  7  1  0
  7  8  1  0
  8 23  2  0
  8  9  1  0
  9 10  2  0
 10 11  1  0
 11 12  2  0
 12 13  1  0
 12 23  1  0
 13 14  1  0
 14 15  2  0
 14 16  1  0
 16 17  1  0
 17 18  2  0
 17 22  1  0
 18 19  1  0
 19 20  2  0
 20 21  1  0
 21 22  2  0
M  END
