WPC1593_minimised.pdb
     RDKit          3D

 21 22  0  0  0  0  0  0  0  0999 V2000
   13.2240    5.0210   24.0160 N   0  0  0  0  0  0  0  0  0  0  0  0
   12.2090    4.9850   23.2720 C   0  0  0  0  0  0  0  0  0  0  0  0
   12.4150    5.1110   21.9480 N   0  0  0  0  0  0  0  0  0  0  0  0
   10.5680    4.5880   23.6170 S   0  0  0  0  0  0  0  0  0  0  0  0
   10.8250    3.0650   24.6090 C   0  0  0  0  0  0  0  0  0  0  0  0
   10.8920    1.8330   23.7300 C   0  0  0  0  0  0  0  0  0  0  0  0
   12.1200    1.3120   23.2800 C   0  0  0  0  0  0  0  0  0  0  0  0
   12.1400    0.1830   22.4420 C   0  0  0  0  0  0  0  0  0  0  0  0
   10.9330   -0.4250   22.0510 C   0  0  0  0  0  0  0  0  0  0  0  0
    9.7110    0.0970   22.5040 C   0  0  0  0  0  0  0  0  0  0  0  0
    8.4760   -0.4100   22.0530 N   0  0  0  0  0  0  0  0  0  0  0  0
    7.9910   -0.1640   20.8000 C   0  0  0  0  0  0  0  0  0  0  0  0
    8.6770    0.1990   19.8680 O   0  0  0  0  0  0  0  0  0  0  0  0
    6.6300   -0.2660   20.7050 N   0  0  0  0  0  0  0  0  0  0  0  0
    5.8960    0.3070   19.6390 C   0  0  0  0  0  0  0  0  0  0  0  0
    4.9590    1.3100   19.9190 C   0  0  0  0  0  0  0  0  0  0  0  0
    4.3870    1.9880   18.8340 C   0  0  0  0  0  0  0  0  0  0  0  0
    4.7750    1.6570   17.5270 C   0  0  0  0  0  0  0  0  0  0  0  0
    5.6480    0.6620   17.2490 N   0  0  0  0  0  0  0  0  0  0  0  0
    6.2050    0.0160   18.2940 C   0  0  0  0  0  0  0  0  0  0  0  0
    9.6950    1.2180   23.3410 C   0  0  0  0  0  0  0  0  0  0  0  0
  1  2  2  0
  2  3  1  0
  2  4  1  0
  4  5  1  0
  5  6  1  0
  6 21  2  0
  6  7  1  0
  7  8  2  0
  8  9  1  0
  9 10  2  0
 10 11  1  0
 10 21  1  0
 11 12  1  0
 12 13  2  0
 12 14  1  0
 14 15  1  0
 15 16  2  0
 15 20  1  0
 16 17  1  0
 17 18  2  0
 18 19  1  0
 19 20  2  0
M  END
