WPC1701_minimised.pdb
     RDKit          3D

 19 20  0  0  0  0  0  0  0  0999 V2000
   13.7830    4.7130   23.4020 N   0  0  0  0  0  0  0  0  0  0  0  0
   12.3710    4.9230   23.0520 C   0  0  0  0  0  0  0  0  0  0  0  0
   11.4150    3.9570   23.7860 C   0  0  0  0  0  0  0  0  0  0  0  0
   11.3190    2.5340   23.2420 C   0  0  0  0  0  0  0  0  0  0  0  0
   12.4490    1.7090   23.0770 C   0  0  0  0  0  0  0  0  0  0  0  0
   12.3110    0.4070   22.5630 C   0  0  0  0  0  0  0  0  0  0  0  0
   11.0360   -0.0970   22.2530 C   0  0  0  0  0  0  0  0  0  0  0  0
    9.9040    0.7030   22.4640 C   0  0  0  0  0  0  0  0  0  0  0  0
    8.6060    0.2400   22.1670 N   0  0  0  0  0  0  0  0  0  0  0  0
    8.0950    0.1710   20.9040 C   0  0  0  0  0  0  0  0  0  0  0  0
    8.7760    0.2110   19.9020 O   0  0  0  0  0  0  0  0  0  0  0  0
    6.7280    0.1430   20.8590 N   0  0  0  0  0  0  0  0  0  0  0  0
    5.9740    0.5620   19.7360 C   0  0  0  0  0  0  0  0  0  0  0  0
    5.0020    1.5530   19.9220 C   0  0  0  0  0  0  0  0  0  0  0  0
    4.3930    2.0920   18.7840 C   0  0  0  0  0  0  0  0  0  0  0  0
    4.7850    1.6490   17.5140 C   0  0  0  0  0  0  0  0  0  0  0  0
    5.6780    0.6510   17.3240 N   0  0  0  0  0  0  0  0  0  0  0  0
    6.2670    0.1330   18.4220 C   0  0  0  0  0  0  0  0  0  0  0  0
   10.0490    2.0120   22.9430 C   0  0  0  0  0  0  0  0  0  0  0  0
  1  2  1  0
  2  3  1  0
  3  4  1  0
  4 19  2  0
  4  5  1  0
  5  6  2  0
  6  7  1  0
  7  8  2  0
  8  9  1  0
  8 19  1  0
  9 10  1  0
 10 11  2  0
 10 12  1  0
 12 13  1  0
 13 14  2  0
 13 18  1  0
 14 15  1  0
 15 16  2  0
 16 17  1  0
 17 18  2  0
M  END
