WPC1879_minimised.pdb
     RDKit          3D

 17 18  0  0  0  0  0  0  0  0999 V2000
    8.7180    0.0450   19.8120 O   0  0  0  0  0  0  0  0  0  0  0  0
    8.0640   -0.0570   20.8290 C   0  0  0  0  0  0  0  0  0  0  0  0
    6.6960    0.0030   20.8230 N   0  0  0  0  0  0  0  0  0  0  0  0
    5.9360    0.4850   19.7290 C   0  0  0  0  0  0  0  0  0  0  0  0
    4.9870    1.4890   19.9590 C   0  0  0  0  0  0  0  0  0  0  0  0
    4.3750    2.0760   18.8450 C   0  0  0  0  0  0  0  0  0  0  0  0
    4.7420    1.6650   17.5550 C   0  0  0  0  0  0  0  0  0  0  0  0
    5.6140    0.6580   17.3240 N   0  0  0  0  0  0  0  0  0  0  0  0
    6.2030    0.0920   18.3970 C   0  0  0  0  0  0  0  0  0  0  0  0
    8.6210   -0.1760   22.0700 N   0  0  0  0  0  0  0  0  0  0  0  0
    9.9910    0.0320   22.3270 C   0  0  0  0  0  0  0  0  0  0  0  0
   10.9540   -0.8910   21.8890 C   0  0  0  0  0  0  0  0  0  0  0  0
   12.3220   -0.6240   22.0690 C   0  0  0  0  0  0  0  0  0  0  0  0
   12.7230    0.5720   22.6900 C   0  0  0  0  0  0  0  0  0  0  0  0
   11.7550    1.4930   23.1190 C   0  0  0  0  0  0  0  0  0  0  0  0
   12.1330    2.6630   23.6670 F   0  0  0  0  0  0  0  0  0  0  0  0
   10.3920    1.2230   22.9450 C   0  0  0  0  0  0  0  0  0  0  0  0
  1  2  2  0
  2 10  1  0
  2  3  1  0
  3  4  1  0
  4  5  2  0
  4  9  1  0
  5  6  1  0
  6  7  2  0
  7  8  1  0
  8  9  2  0
 10 11  1  0
 11 12  2  0
 11 17  1  0
 12 13  1  0
 13 14  2  0
 14 15  1  0
 15 16  1  0
 15 17  2  0
M  END
