WPC1803_minimised.pdb
     RDKit          3D

 21 22  0  0  0  0  0  0  0  0999 V2000
   13.7830    5.2950   21.6600 C   0  0  0  0  0  0  0  0  0  0  0  0
   13.6730    4.8580   23.0200 O   0  0  0  0  0  0  0  0  0  0  0  0
   13.3720    3.4500   23.0620 N   0  0  0  0  0  0  0  0  0  0  0  0
   12.0410    3.3120   23.6710 C   0  0  0  0  0  0  0  0  0  0  0  0
   11.8230    1.9060   24.2650 C   0  0  0  0  0  0  0  0  0  0  0  0
   11.4050    0.8490   23.2700 C   0  0  0  0  0  0  0  0  0  0  0  0
   12.3640    0.0270   22.6540 C   0  0  0  0  0  0  0  0  0  0  0  0
   11.9560   -1.0270   21.8240 C   0  0  0  0  0  0  0  0  0  0  0  0
   10.5880   -1.2470   21.6000 C   0  0  0  0  0  0  0  0  0  0  0  0
    9.6350   -0.3960   22.1750 C   0  0  0  0  0  0  0  0  0  0  0  0
    8.2750   -0.5140   21.8360 N   0  0  0  0  0  0  0  0  0  0  0  0
    7.7910   -0.2180   20.5950 C   0  0  0  0  0  0  0  0  0  0  0  0
    8.4950   -0.0140   19.6270 O   0  0  0  0  0  0  0  0  0  0  0  0
    6.4290   -0.1060   20.5520 N   0  0  0  0  0  0  0  0  0  0  0  0
    5.7220    0.4910   19.4820 C   0  0  0  0  0  0  0  0  0  0  0  0
    4.7830    1.4910   19.7610 C   0  0  0  0  0  0  0  0  0  0  0  0
    4.2240    2.1780   18.6750 C   0  0  0  0  0  0  0  0  0  0  0  0
    4.6350    1.8660   17.3710 C   0  0  0  0  0  0  0  0  0  0  0  0
    5.5030    0.8680   17.0930 N   0  0  0  0  0  0  0  0  0  0  0  0
    6.0370    0.2050   18.1360 C   0  0  0  0  0  0  0  0  0  0  0  0
   10.0410    0.6430   23.0180 C   0  0  0  0  0  0  0  0  0  0  0  0
  1  2  1  0
  2  3  1  0
  3  4  1  0
  4  5  1  0
  5  6  1  0
  6 21  2  0
  6  7  1  0
  7  8  2  0
  8  9  1  0
  9 10  2  0
 10 11  1  0
 10 21  1  0
 11 12  1  0
 12 13  2  0
 12 14  1  0
 14 15  1  0
 15 16  2  0
 15 20  1  0
 16 17  1  0
 17 18  2  0
 18 19  1  0
 19 20  2  0
M  END
