WPC1999_minimised.pdb
     RDKit          3D

 21 23  0  0  0  0  0  0  0  0999 V2000
    8.6660    0.2150   19.9060 O   0  0  0  0  0  0  0  0  0  0  0  0
    7.9930   -0.2270   20.8150 C   0  0  0  0  0  0  0  0  0  0  0  0
    6.6340   -0.3430   20.7190 N   0  0  0  0  0  0  0  0  0  0  0  0
    5.8910    0.2480   19.6700 C   0  0  0  0  0  0  0  0  0  0  0  0
    4.9520    1.2430   19.9700 C   0  0  0  0  0  0  0  0  0  0  0  0
    4.3740    1.9390   18.9000 C   0  0  0  0  0  0  0  0  0  0  0  0
    4.7550    1.6280   17.5850 C   0  0  0  0  0  0  0  0  0  0  0  0
    5.6300    0.6420   17.2860 N   0  0  0  0  0  0  0  0  0  0  0  0
    6.1960   -0.0170   18.3170 C   0  0  0  0  0  0  0  0  0  0  0  0
    8.5000   -0.5740   22.0340 N   0  0  0  0  0  0  0  0  0  0  0  0
    9.7570   -0.1330   22.4890 C   0  0  0  0  0  0  0  0  0  0  0  0
   10.9530   -0.6740   21.9900 C   0  0  0  0  0  0  0  0  0  0  0  0
   12.1880   -0.1120   22.3640 C   0  0  0  0  0  0  0  0  0  0  0  0
   12.2210    0.9940   23.2330 C   0  0  0  0  0  0  0  0  0  0  0  0
   11.0200    1.5270   23.7260 C   0  0  0  0  0  0  0  0  0  0  0  0
   10.9910    2.9950   24.7170 S   0  0  0  0  0  0  0  0  0  0  0  0
   11.1120    4.2960   23.4170 C   0  0  0  0  0  0  0  0  0  0  0  0
   12.5280    4.8720   23.0910 C   0  0  0  0  0  0  0  0  0  0  0  0
   12.2420    5.9110   24.2230 C   0  0  0  0  0  0  0  0  0  0  0  0
   10.7370    5.7500   23.8310 C   0  0  0  0  0  0  0  0  0  0  0  0
    9.7950    0.9590   23.3610 C   0  0  0  0  0  0  0  0  0  0  0  0
  1  2  2  0
  2  3  1  0
  2 10  1  0
  3  4  1  0
  4  5  2  0
  4  9  1  0
  5  6  1  0
  6  7  2  0
  7  8  1  0
  8  9  2  0
 10 11  1  0
 11 21  1  0
 11 12  2  0
 12 13  1  0
 13 14  2  0
 14 15  1  0
 15 16  1  0
 15 21  2  0
 16 17  1  0
 17 18  1  0
 17 20  1  0
 18 19  1  0
 19 20  1  0
M  END
