WPC1154_minimised.pdb
     RDKit          3D

 22 23  0  0  0  0  0  0  0  0999 V2000
   14.2270    5.5380   21.9770 C   0  0  0  0  0  0  0  0  0  0  0  0
   12.8650    5.1000   22.0980 O   0  0  0  0  0  0  0  0  0  0  0  0
   12.3240    5.0200   23.3440 C   0  0  0  0  0  0  0  0  0  0  0  0
   12.9070    5.3160   24.3730 O   0  0  0  0  0  0  0  0  0  0  0  0
   10.9090    4.4740   23.3060 C   0  0  0  0  0  0  0  0  0  0  0  0
   10.6340    3.2600   24.6570 S   0  0  0  0  0  0  0  0  0  0  0  0
   10.7660    1.7330   23.7620 C   0  0  0  0  0  0  0  0  0  0  0  0
   12.0080    1.2250   23.3460 C   0  0  0  0  0  0  0  0  0  0  0  0
   12.0570    0.0780   22.5310 C   0  0  0  0  0  0  0  0  0  0  0  0
   10.8630   -0.5470   22.1260 C   0  0  0  0  0  0  0  0  0  0  0  0
    9.6280   -0.0350   22.5540 C   0  0  0  0  0  0  0  0  0  0  0  0
    8.4070   -0.5370   22.0670 N   0  0  0  0  0  0  0  0  0  0  0  0
    7.9430   -0.2350   20.8190 C   0  0  0  0  0  0  0  0  0  0  0  0
    8.6490    0.1610   19.9130 O   0  0  0  0  0  0  0  0  0  0  0  0
    6.5840   -0.3330   20.6970 N   0  0  0  0  0  0  0  0  0  0  0  0
    5.8640    0.2610   19.6330 C   0  0  0  0  0  0  0  0  0  0  0  0
    4.9150    1.2510   19.9200 C   0  0  0  0  0  0  0  0  0  0  0  0
    4.3480    1.9420   18.8410 C   0  0  0  0  0  0  0  0  0  0  0  0
    4.7480    1.6320   17.5320 C   0  0  0  0  0  0  0  0  0  0  0  0
    5.6350    0.6520   17.2470 N   0  0  0  0  0  0  0  0  0  0  0  0
    6.1910   -0.0020   18.2860 C   0  0  0  0  0  0  0  0  0  0  0  0
    9.5830    1.0950   23.3770 C   0  0  0  0  0  0  0  0  0  0  0  0
  1  2  1  0
  2  3  1  0
  3  4  2  0
  3  5  1  0
  5  6  1  0
  6  7  1  0
  7 22  2  0
  7  8  1  0
  8  9  2  0
  9 10  1  0
 10 11  2  0
 11 12  1  0
 11 22  1  0
 12 13  1  0
 13 14  2  0
 13 15  1  0
 15 16  1  0
 16 17  2  0
 16 21  1  0
 17 18  1  0
 18 19  2  0
 19 20  1  0
 20 21  2  0
M  END
