WPC1332_minimised.pdb
     RDKit          3D

 21 22  0  0  0  0  0  0  0  0999 V2000
   13.7560    5.3060   21.5190 C   0  0  0  0  0  0  0  0  0  0  0  0
   13.7580    5.0210   23.0280 C   0  0  0  0  0  0  0  0  0  0  0  0
   13.0090    3.8390   23.3480 O   0  0  0  0  0  0  0  0  0  0  0  0
   11.5800    3.9610   23.2570 C   0  0  0  0  0  0  0  0  0  0  0  0
   10.9430    2.8320   24.0840 C   0  0  0  0  0  0  0  0  0  0  0  0
   10.9210    1.4950   23.3630 C   0  0  0  0  0  0  0  0  0  0  0  0
   12.1050    0.7920   23.0690 C   0  0  0  0  0  0  0  0  0  0  0  0
   12.0480   -0.4230   22.3640 C   0  0  0  0  0  0  0  0  0  0  0  0
   10.8070   -0.9490   21.9690 C   0  0  0  0  0  0  0  0  0  0  0  0
    9.6290   -0.2550   22.2770 C   0  0  0  0  0  0  0  0  0  0  0  0
    8.3740   -0.6910   21.8190 N   0  0  0  0  0  0  0  0  0  0  0  0
    7.8820   -0.3420   20.5950 C   0  0  0  0  0  0  0  0  0  0  0  0
    8.5690    0.0540   19.6770 O   0  0  0  0  0  0  0  0  0  0  0  0
    6.5180   -0.3860   20.5210 N   0  0  0  0  0  0  0  0  0  0  0  0
    5.7890    0.2550   19.4930 C   0  0  0  0  0  0  0  0  0  0  0  0
    4.8680    1.2580   19.8240 C   0  0  0  0  0  0  0  0  0  0  0  0
    4.3050    1.9960   18.7750 C   0  0  0  0  0  0  0  0  0  0  0  0
    4.6870    1.7250   17.4520 C   0  0  0  0  0  0  0  0  0  0  0  0
    5.5470    0.7340   17.1250 N   0  0  0  0  0  0  0  0  0  0  0  0
    6.0920    0.0280   18.1350 C   0  0  0  0  0  0  0  0  0  0  0  0
    9.6880    0.9610   22.9660 C   0  0  0  0  0  0  0  0  0  0  0  0
  1  2  1  0
  2  3  1  0
  3  4  1  0
  4  5  1  0
  5  6  1  0
  6 21  2  0
  6  7  1  0
  7  8  2  0
  8  9  1  0
  9 10  2  0
 10 11  1  0
 10 21  1  0
 11 12  1  0
 12 13  2  0
 12 14  1  0
 14 15  1  0
 15 16  2  0
 15 20  1  0
 16 17  1  0
 17 18  2  0
 18 19  1  0
 19 20  2  0
M  END
