WPC1625_minimised.pdb
     RDKit          3D

 24 26  0  0  0  0  0  0  0  0999 V2000
   14.3980    4.7510   22.8970 N   0  0  0  0  0  0  0  0  0  0  0  0
   13.3410    3.9260   23.0160 C   0  0  0  0  0  0  0  0  0  0  0  0
   12.1180    4.3290   23.5000 C   0  0  0  0  0  0  0  0  0  0  0  0
   11.1630    3.3270   23.6290 C   0  0  0  0  0  0  0  0  0  0  0  0
   11.4460    2.0550   23.3270 N   0  0  0  0  0  0  0  0  0  0  0  0
   12.6730    1.7810   22.8610 C   0  0  0  0  0  0  0  0  0  0  0  0
   13.1090    0.1110   22.3580 S   0  0  0  0  0  0  0  0  0  0  0  0
   11.6340   -0.8900   22.5530 C   0  0  0  0  0  0  0  0  0  0  0  0
   11.7410   -2.1780   23.1020 C   0  0  0  0  0  0  0  0  0  0  0  0
   10.6020   -2.9740   23.3000 C   0  0  0  0  0  0  0  0  0  0  0  0
    9.3420   -2.4960   22.9100 C   0  0  0  0  0  0  0  0  0  0  0  0
    9.2320   -1.2360   22.3040 C   0  0  0  0  0  0  0  0  0  0  0  0
    7.9670   -0.7800   21.8810 N   0  0  0  0  0  0  0  0  0  0  0  0
    7.6950   -0.1410   20.7040 C   0  0  0  0  0  0  0  0  0  0  0  0
    8.5220    0.1440   19.8590 O   0  0  0  0  0  0  0  0  0  0  0  0
    6.3640    0.1320   20.5650 N   0  0  0  0  0  0  0  0  0  0  0  0
    5.7510    0.7470   19.4500 C   0  0  0  0  0  0  0  0  0  0  0  0
    4.7490    1.7020   19.6560 C   0  0  0  0  0  0  0  0  0  0  0  0
    4.2230    2.3430   18.5280 C   0  0  0  0  0  0  0  0  0  0  0  0
    4.7220    2.0300   17.2550 C   0  0  0  0  0  0  0  0  0  0  0  0
    5.6530    1.0720   17.0440 N   0  0  0  0  0  0  0  0  0  0  0  0
    6.1620    0.4590   18.1310 C   0  0  0  0  0  0  0  0  0  0  0  0
   10.3760   -0.4400   22.1240 C   0  0  0  0  0  0  0  0  0  0  0  0
   13.6460    2.6820   22.7240 N   0  0  0  0  0  0  0  0  0  0  0  0
  1  2  1  0
  2 24  2  0
  2  3  1  0
  3  4  2  0
  4  5  1  0
  5  6  2  0
  6  7  1  0
  6 24  1  0
  7  8  1  0
  8 23  1  0
  8  9  2  0
  9 10  1  0
 10 11  2  0
 11 12  1  0
 12 13  1  0
 12 23  2  0
 13 14  1  0
 14 15  2  0
 14 16  1  0
 16 17  1  0
 17 18  2  0
 17 22  1  0
 18 19  1  0
 19 20  2  0
 20 21  1  0
 21 22  2  0
M  END
