WPC1036_minimised.pdb
     RDKit          3D

 21 22  0  0  0  0  0  0  0  0999 V2000
   11.8350    3.2030   22.2430 N   0  0  0  0  0  0  0  0  0  0  0  0
   13.1270    3.4320   22.5660 C   0  0  0  0  0  0  0  0  0  0  0  0
   13.6330    4.5130   22.3920 O   0  0  0  0  0  0  0  0  0  0  0  0
   13.8620    2.4110   23.1110 N   0  0  0  0  0  0  0  0  0  0  0  0
   13.5450    1.0030   23.4400 C   0  0  0  0  0  0  0  0  0  0  0  0
   12.1390    0.4960   23.1950 C   0  0  0  0  0  0  0  0  0  0  0  0
   11.9010   -0.3790   22.1240 C   0  0  0  0  0  0  0  0  0  0  0  0
   10.5910   -0.7670   21.8230 C   0  0  0  0  0  0  0  0  0  0  0  0
    9.5180   -0.2750   22.5790 C   0  0  0  0  0  0  0  0  0  0  0  0
    8.1970   -0.4590   22.1270 N   0  0  0  0  0  0  0  0  0  0  0  0
    7.7810   -0.1250   20.8660 C   0  0  0  0  0  0  0  0  0  0  0  0
    8.5330    0.1890   19.9620 O   0  0  0  0  0  0  0  0  0  0  0  0
    6.4220   -0.1260   20.7230 N   0  0  0  0  0  0  0  0  0  0  0  0
    5.7450    0.4360   19.6150 C   0  0  0  0  0  0  0  0  0  0  0  0
    4.7640    1.4090   19.8400 C   0  0  0  0  0  0  0  0  0  0  0  0
    4.2310    2.0650   18.7230 C   0  0  0  0  0  0  0  0  0  0  0  0
    4.6960    1.7400   17.4410 C   0  0  0  0  0  0  0  0  0  0  0  0
    5.6030    0.7630   17.2100 N   0  0  0  0  0  0  0  0  0  0  0  0
    6.1260    0.1430   18.2870 C   0  0  0  0  0  0  0  0  0  0  0  0
    9.7610    0.5200   23.7080 C   0  0  0  0  0  0  0  0  0  0  0  0
   11.0750    0.8930   24.0270 C   0  0  0  0  0  0  0  0  0  0  0  0
  1  2  1  0
  2  3  2  0
  2  4  1  0
  4  5  1  0
  5  6  1  0
  6 21  2  0
  6  7  1  0
  7  8  2  0
  8  9  1  0
  9 10  1  0
  9 20  2  0
 10 11  1  0
 11 12  2  0
 11 13  1  0
 13 14  1  0
 14 15  2  0
 14 19  1  0
 15 16  1  0
 16 17  2  0
 17 18  1  0
 18 19  2  0
 20 21  1  0
M  END
