WPC1882_minimised.pdb
     RDKit          3D

 23 25  0  0  1  0  0  0  0  0999 V2000
    8.4520    0.0720   19.6820 O   0  0  0  0  0  0  0  0  0  0  0  0
    7.7680   -0.1110   20.6690 C   0  0  0  0  0  0  0  0  0  0  0  0
    6.4050    0.0000   20.6470 N   0  0  0  0  0  0  0  0  0  0  0  0
    5.6800    0.5530   19.5640 C   0  0  0  0  0  0  0  0  0  0  0  0
    4.7370    1.5560   19.8180 C   0  0  0  0  0  0  0  0  0  0  0  0
    4.1660    2.2050   18.7170 C   0  0  0  0  0  0  0  0  0  0  0  0
    4.5670    1.8550   17.4190 C   0  0  0  0  0  0  0  0  0  0  0  0
    5.4350    0.8500   17.1640 N   0  0  0  0  0  0  0  0  0  0  0  0
    5.9820    0.2240   18.2240 C   0  0  0  0  0  0  0  0  0  0  0  0
    8.2870   -0.3870   21.9020 N   0  0  0  0  0  0  0  0  0  0  0  0
    9.6670   -0.3310   22.1720 C   0  0  0  0  0  0  0  0  0  0  0  0
   10.5370   -1.2490   21.5710 C   0  0  0  0  0  0  0  0  0  0  0  0
   11.9250   -1.0920   21.6970 C   0  0  0  0  0  0  0  0  0  0  0  0
   12.4390   -0.0270   22.4490 C   0  0  0  0  0  0  0  0  0  0  0  0
   11.5660    0.8660   23.0950 C   0  0  0  0  0  0  0  0  0  0  0  0
   12.1200    1.9200   24.0270 C   0  0  0  0  0  0  0  0  0  0  0  0
   12.0300    3.3560   23.5550 C   0  0  1  0  0  0  0  0  0  0  0  0
   10.7110    4.0710   23.6890 C   0  0  0  0  0  0  0  0  0  0  0  0
   11.2110    5.4910   23.7340 C   0  0  0  0  0  0  0  0  0  0  0  0
   10.5560    6.4930   23.9440 O   0  0  0  0  0  0  0  0  0  0  0  0
   12.5730    5.4340   23.5920 N   0  0  0  0  0  0  0  0  0  0  0  0
   13.0380    4.1540   23.5220 N   0  0  0  0  0  0  0  0  0  0  0  0
   10.1780    0.7140   22.9510 C   0  0  0  0  0  0  0  0  0  0  0  0
  1  2  2  0
  2  3  1  0
  2 10  1  0
  3  4  1  0
  4  5  2  0
  4  9  1  0
  5  6  1  0
  6  7  2  0
  7  8  1  0
  8  9  2  0
 10 11  1  0
 11 23  1  0
 11 12  2  0
 12 13  1  0
 13 14  2  0
 14 15  1  0
 15 16  1  0
 15 23  2  0
 17 16  1  1
 17 18  1  0
 17 22  1  0
 18 19  1  0
 19 20  2  0
 19 21  1  0
 21 22  1  0
M  END
