WPC1903_minimised.pdb
     RDKit          3D

 20 21  0  0  0  0  0  0  0  0999 V2000
   13.6110    5.4140   22.5150 C   0  0  0  0  0  0  0  0  0  0  0  0
   12.9070    4.2210   22.8680 O   0  0  0  0  0  0  0  0  0  0  0  0
   11.4880    4.4570   23.0030 N   0  0  0  0  0  0  0  0  0  0  0  0
   10.9660    3.4360   23.9240 C   0  0  0  0  0  0  0  0  0  0  0  0
   10.9340    2.0360   23.3220 C   0  0  0  0  0  0  0  0  0  0  0  0
   12.1130    1.3010   23.0880 C   0  0  0  0  0  0  0  0  0  0  0  0
   12.0550    0.0360   22.4780 C   0  0  0  0  0  0  0  0  0  0  0  0
   10.8120   -0.5190   22.1300 C   0  0  0  0  0  0  0  0  0  0  0  0
    9.6350    0.1960   22.3960 C   0  0  0  0  0  0  0  0  0  0  0  0
    8.3750   -0.2870   22.0000 N   0  0  0  0  0  0  0  0  0  0  0  0
    7.9060   -0.1490   20.7270 C   0  0  0  0  0  0  0  0  0  0  0  0
    8.6160    0.0580   19.7640 O   0  0  0  0  0  0  0  0  0  0  0  0
    6.5410   -0.1690   20.6480 N   0  0  0  0  0  0  0  0  0  0  0  0
    5.8210    0.3920   19.5670 C   0  0  0  0  0  0  0  0  0  0  0  0
    4.8720    1.3860   19.8340 C   0  0  0  0  0  0  0  0  0  0  0  0
    4.3040    2.0550   18.7430 C   0  0  0  0  0  0  0  0  0  0  0  0
    4.7140    1.7300   17.4420 C   0  0  0  0  0  0  0  0  0  0  0  0
    5.5950    0.7400   17.1740 N   0  0  0  0  0  0  0  0  0  0  0  0
    6.1420    0.0970   18.2250 C   0  0  0  0  0  0  0  0  0  0  0  0
    9.6970    1.4660   22.9820 C   0  0  0  0  0  0  0  0  0  0  0  0
  1  2  1  0
  2  3  1  0
  3  4  1  0
  4  5  1  0
  5 20  2  0
  5  6  1  0
  6  7  2  0
  7  8  1  0
  8  9  2  0
  9 10  1  0
  9 20  1  0
 10 11  1  0
 11 12  2  0
 11 13  1  0
 13 14  1  0
 14 15  2  0
 14 19  1  0
 15 16  1  0
 16 17  2  0
 17 18  1  0
 18 19  2  0
M  END
