WPC1748_minimised.pdb
     RDKit          3D

 22 23  0  0  1  0  0  0  0  0999 V2000
   12.5650    4.6590   22.6260 C   0  0  0  0  0  0  0  0  0  0  0  0
   11.4480    4.7780   23.6890 C   0  0  2  0  0  0  0  0  0  0  0  0
   11.0620    3.4320   24.3660 C   0  0  0  0  0  0  0  0  0  0  0  0
   10.9620    2.1950   23.4840 C   0  0  0  0  0  0  0  0  0  0  0  0
   12.1150    1.4710   23.1220 C   0  0  0  0  0  0  0  0  0  0  0  0
   12.0090    0.2900   22.3670 C   0  0  0  0  0  0  0  0  0  0  0  0
   10.7430   -0.1880   21.9920 C   0  0  0  0  0  0  0  0  0  0  0  0
    9.5920    0.5120   22.3840 C   0  0  0  0  0  0  0  0  0  0  0  0
    8.3090    0.0690   22.0110 N   0  0  0  0  0  0  0  0  0  0  0  0
    7.8540    0.0650   20.7270 C   0  0  0  0  0  0  0  0  0  0  0  0
    8.5740    0.1730   19.7550 O   0  0  0  0  0  0  0  0  0  0  0  0
    6.4910    0.0220   20.6390 N   0  0  0  0  0  0  0  0  0  0  0  0
    5.7700    0.5240   19.5320 C   0  0  0  0  0  0  0  0  0  0  0  0
    4.8040    1.5110   19.7610 C   0  0  0  0  0  0  0  0  0  0  0  0
    4.2390    2.1390   18.6450 C   0  0  0  0  0  0  0  0  0  0  0  0
    4.6690    1.7830   17.3590 C   0  0  0  0  0  0  0  0  0  0  0  0
    5.5620    0.7940   17.1280 N   0  0  0  0  0  0  0  0  0  0  0  0
    6.1060    0.1890   18.2030 C   0  0  0  0  0  0  0  0  0  0  0  0
    9.7010    1.6990   23.1200 C   0  0  0  0  0  0  0  0  0  0  0  0
   10.2350    5.5990   23.2270 C   0  0  0  0  0  0  0  0  0  0  0  0
    9.9810    6.6680   23.7390 O   0  0  0  0  0  0  0  0  0  0  0  0
    9.2640    4.9110   22.6150 O   0  0  0  0  0  0  0  0  0  0  0  0
  2  1  1  6
  2 20  1  0
  2  3  1  0
  3  4  1  0
  4 19  2  0
  4  5  1  0
  5  6  2  0
  6  7  1  0
  7  8  2  0
  8  9  1  0
  8 19  1  0
  9 10  1  0
 10 11  2  0
 10 12  1  0
 12 13  1  0
 13 14  2  0
 13 18  1  0
 14 15  1  0
 15 16  2  0
 16 17  1  0
 17 18  2  0
 20 21  2  0
 20 22  1  0
M  END
