WPC1161_minimised.pdb
     RDKit          3D

 19 20  0  0  0  0  0  0  0  0999 V2000
    8.7050    0.2660   19.9870 O   0  0  0  0  0  0  0  0  0  0  0  0
    7.9910    0.0990   20.9540 C   0  0  0  0  0  0  0  0  0  0  0  0
    6.6300    0.0070   20.8520 N   0  0  0  0  0  0  0  0  0  0  0  0
    5.9060    0.4730   19.7290 C   0  0  0  0  0  0  0  0  0  0  0  0
    4.9380    1.4660   19.9230 C   0  0  0  0  0  0  0  0  0  0  0  0
    4.3650    2.0490   18.7880 C   0  0  0  0  0  0  0  0  0  0  0  0
    4.7820    1.6390   17.5140 C   0  0  0  0  0  0  0  0  0  0  0  0
    5.6770    0.6440   17.3150 N   0  0  0  0  0  0  0  0  0  0  0  0
    6.2370    0.0900   18.4100 C   0  0  0  0  0  0  0  0  0  0  0  0
    8.4500    0.0710   22.2400 N   0  0  0  0  0  0  0  0  0  0  0  0
    9.6990    0.5970   22.6260 C   0  0  0  0  0  0  0  0  0  0  0  0
   10.9030    0.0100   22.2030 C   0  0  0  0  0  0  0  0  0  0  0  0
   12.1270    0.6230   22.5220 C   0  0  0  0  0  0  0  0  0  0  0  0
   12.1420    1.8290   23.2430 C   0  0  0  0  0  0  0  0  0  0  0  0
   10.9350    2.4220   23.6630 C   0  0  0  0  0  0  0  0  0  0  0  0
   10.9210    3.7350   24.4350 C   0  0  0  0  0  0  0  0  0  0  0  0
   10.2170    4.8230   23.7370 N   0  0  0  0  0  0  0  0  0  0  0  0
   11.0230    5.2410   22.6390 O   0  0  0  0  0  0  0  0  0  0  0  0
    9.7190    1.7900   23.3590 C   0  0  0  0  0  0  0  0  0  0  0  0
  1  2  2  0
  2 10  1  0
  2  3  1  0
  3  4  1  0
  4  5  2  0
  4  9  1  0
  5  6  1  0
  6  7  2  0
  7  8  1  0
  8  9  2  0
 10 11  1  0
 11 12  2  0
 11 19  1  0
 12 13  1  0
 13 14  2  0
 14 15  1  0
 15 16  1  0
 15 19  2  0
 16 17  1  0
 17 18  1  0
M  END
