WPC1730_minimised.pdb
     RDKit          3D

 23 25  0  0  0  0  0  0  0  0999 V2000
    8.6890    0.1260   19.9050 O   0  0  0  0  0  0  0  0  0  0  0  0
    7.9830   -0.2130   20.8340 C   0  0  0  0  0  0  0  0  0  0  0  0
    6.6200   -0.2750   20.7320 N   0  0  0  0  0  0  0  0  0  0  0  0
    5.9020    0.3080   19.6590 C   0  0  0  0  0  0  0  0  0  0  0  0
    4.9540    1.3020   19.9350 C   0  0  0  0  0  0  0  0  0  0  0  0
    4.3910    1.9860   18.8490 C   0  0  0  0  0  0  0  0  0  0  0  0
    4.7980    1.6690   17.5440 C   0  0  0  0  0  0  0  0  0  0  0  0
    5.6790    0.6820   17.2690 N   0  0  0  0  0  0  0  0  0  0  0  0
    6.2280    0.0310   18.3140 C   0  0  0  0  0  0  0  0  0  0  0  0
    8.4560   -0.4690   22.0910 N   0  0  0  0  0  0  0  0  0  0  0  0
    9.6820    0.0540   22.5470 C   0  0  0  0  0  0  0  0  0  0  0  0
   10.9110   -0.3730   22.0190 C   0  0  0  0  0  0  0  0  0  0  0  0
   12.0910    0.3090   22.3640 C   0  0  0  0  0  0  0  0  0  0  0  0
   12.0320    1.4380   23.2000 C   0  0  0  0  0  0  0  0  0  0  0  0
   10.7980    1.8670   23.7240 C   0  0  0  0  0  0  0  0  0  0  0  0
   10.6990    3.1200   24.5820 C   0  0  0  0  0  0  0  0  0  0  0  0
   10.1310    4.2980   23.9000 N   0  0  0  0  0  0  0  0  0  0  0  0
    9.0070    4.1900   22.9720 C   0  0  0  0  0  0  0  0  0  0  0  0
    8.9360    5.6210   22.5380 C   0  0  0  0  0  0  0  0  0  0  0  0
    9.8000    6.3610   23.1530 N   0  0  0  0  0  0  0  0  0  0  0  0
   10.6230    5.5880   23.9710 C   0  0  0  0  0  0  0  0  0  0  0  0
   11.9470    6.1320   24.8260 S   0  0  0  0  0  0  0  0  0  0  0  0
    9.6340    1.1420   23.4240 C   0  0  0  0  0  0  0  0  0  0  0  0
  1  2  2  0
  2  3  1  0
  2 10  1  0
  3  4  1  0
  4  5  2  0
  4  9  1  0
  5  6  1  0
  6  7  2  0
  7  8  1  0
  8  9  2  0
 10 11  1  0
 11 23  1  0
 11 12  2  0
 12 13  1  0
 13 14  2  0
 14 15  1  0
 15 16  1  0
 15 23  2  0
 16 17  1  0
 17 18  1  0
 17 21  1  0
 18 19  1  0
 19 20  2  0
 20 21  1  0
 21 22  2  0
M  END
