WPC1049_minimised.pdb
     RDKit          3D

 20 21  0  0  1  0  0  0  0  0999 V2000
   13.7790    2.2790   22.8980 N   0  0  0  0  0  0  0  0  0  0  0  0
   14.0660    0.8560   22.6480 C   0  0  0  0  0  0  0  0  0  0  0  0
   13.4520   -0.1120   23.6910 C   0  0  2  0  0  0  0  0  0  0  0  0
   14.1620   -1.3500   23.6760 O   0  0  0  0  0  0  0  0  0  0  0  0
   11.9800   -0.3440   23.3920 C   0  0  0  0  0  0  0  0  0  0  0  0
   11.5960   -1.2250   22.3650 C   0  0  0  0  0  0  0  0  0  0  0  0
   10.2530   -1.3160   21.9790 C   0  0  0  0  0  0  0  0  0  0  0  0
    9.2860   -0.5240   22.6150 C   0  0  0  0  0  0  0  0  0  0  0  0
    7.9740   -0.4660   22.1080 N   0  0  0  0  0  0  0  0  0  0  0  0
    7.6670   -0.1160   20.8220 C   0  0  0  0  0  0  0  0  0  0  0  0
    8.4810    0.0260   19.9310 O   0  0  0  0  0  0  0  0  0  0  0  0
    6.3290    0.0950   20.6460 N   0  0  0  0  0  0  0  0  0  0  0  0
    5.7290    0.6740   19.5040 C   0  0  0  0  0  0  0  0  0  0  0  0
    4.7450    1.6530   19.6820 C   0  0  0  0  0  0  0  0  0  0  0  0
    4.2540    2.2950   18.5390 C   0  0  0  0  0  0  0  0  0  0  0  0
    4.7690    1.9610   17.2800 C   0  0  0  0  0  0  0  0  0  0  0  0
    5.6790    0.9780   17.0920 N   0  0  0  0  0  0  0  0  0  0  0  0
    6.1550    0.3620   18.1930 C   0  0  0  0  0  0  0  0  0  0  0  0
    9.6510    0.3140   23.6770 C   0  0  0  0  0  0  0  0  0  0  0  0
   10.9970    0.4080   24.0600 C   0  0  0  0  0  0  0  0  0  0  0  0
  1  2  1  0
  2  3  1  0
  3  4  1  6
  3  5  1  0
  5 20  2  0
  5  6  1  0
  6  7  2  0
  7  8  1  0
  8  9  1  0
  8 19  2  0
  9 10  1  0
 10 11  2  0
 10 12  1  0
 12 13  1  0
 13 14  2  0
 13 18  1  0
 14 15  1  0
 15 16  2  0
 16 17  1  0
 17 18  2  0
 19 20  1  0
M  END
