WPC1929_minimised.pdb
     RDKit          3D

 24 26  0  0  1  0  0  0  0  0999 V2000
    8.4210   -1.4600   19.8840 O   0  0  0  0  0  0  0  0  0  0  0  0
    7.7690   -1.3060   20.8990 C   0  0  0  0  0  0  0  0  0  0  0  0
    6.5060   -0.7690   20.8800 N   0  0  0  0  0  0  0  0  0  0  0  0
    5.9440    0.0010   19.8220 C   0  0  0  0  0  0  0  0  0  0  0  0
    5.1320    1.1000   20.1440 C   0  0  0  0  0  0  0  0  0  0  0  0
    4.6740    1.9140   19.0980 C   0  0  0  0  0  0  0  0  0  0  0  0
    5.0300    1.6120   17.7750 C   0  0  0  0  0  0  0  0  0  0  0  0
    5.7780    0.5360   17.4510 N   0  0  0  0  0  0  0  0  0  0  0  0
    6.2360   -0.2360   18.4570 C   0  0  0  0  0  0  0  0  0  0  0  0
    8.2150   -1.5930   22.1670 N   0  0  0  0  0  0  0  0  0  0  0  0
    9.5760   -1.4960   22.5370 C   0  0  0  0  0  0  0  0  0  0  0  0
   10.5860   -2.0280   21.7290 C   0  0  0  0  0  0  0  0  0  0  0  0
   11.9160   -1.6090   21.8800 C   0  0  0  0  0  0  0  0  0  0  0  0
   12.2270   -0.6270   22.8240 C   0  0  0  0  0  0  0  0  0  0  0  0
   11.2310   -0.1460   23.6850 C   0  0  0  0  0  0  0  0  0  0  0  0
   11.6430    1.2470   24.7110 S   0  0  0  0  0  0  0  0  0  0  0  0
   10.0760    2.1580   25.0980 C   0  0  0  0  0  0  0  0  0  0  0  0
    9.1940    2.2860   23.8700 C   0  0  1  0  0  0  0  0  0  0  0  0
    9.7810    2.5700   22.5140 C   0  0  0  0  0  0  0  0  0  0  0  0
    8.6180    2.0990   21.6870 C   0  0  0  0  0  0  0  0  0  0  0  0
    8.6250    1.7170   20.5400 O   0  0  0  0  0  0  0  0  0  0  0  0
    7.5590    1.9550   22.5340 N   0  0  0  0  0  0  0  0  0  0  0  0
    7.9400    1.9970   23.8420 N   0  0  0  0  0  0  0  0  0  0  0  0
    9.9190   -0.6400   23.5890 C   0  0  0  0  0  0  0  0  0  0  0  0
  1  2  2  0
  2  3  1  0
  2 10  1  0
  3  4  1  0
  4  5  2  0
  4  9  1  0
  5  6  1  0
  6  7  2  0
  7  8  1  0
  8  9  2  0
 10 11  1  0
 11 24  1  0
 11 12  2  0
 12 13  1  0
 13 14  2  0
 14 15  1  0
 15 16  1  0
 15 24  2  0
 16 17  1  0
 18 17  1  6
 18 19  1  0
 18 23  1  0
 19 20  1  0
 20 21  2  0
 20 22  1  0
 22 23  1  0
M  END
