WPC1501_minimised.pdb
     RDKit          3D

 24 26  0  0  1  0  0  0  0  0999 V2000
    9.0610    0.8540   20.5890 O   0  0  0  0  0  0  0  0  0  0  0  0
    8.7820   -0.3270   20.6840 C   0  0  0  0  0  0  0  0  0  0  0  0
    7.6200   -0.8450   20.1870 N   0  0  0  0  0  0  0  0  0  0  0  0
    6.6680   -0.1220   19.4280 C   0  0  0  0  0  0  0  0  0  0  0  0
    5.9960    0.9760   19.9860 C   0  0  0  0  0  0  0  0  0  0  0  0
    5.1040    1.6860   19.1660 C   0  0  0  0  0  0  0  0  0  0  0  0
    4.9440    1.3050   17.8250 C   0  0  0  0  0  0  0  0  0  0  0  0
    5.5750    0.2350   17.2920 N   0  0  0  0  0  0  0  0  0  0  0  0
    6.4170   -0.4560   18.0850 C   0  0  0  0  0  0  0  0  0  0  0  0
    9.6010   -1.2530   21.2800 N   0  0  0  0  0  0  0  0  0  0  0  0
   10.7560   -0.8700   21.9820 C   0  0  0  0  0  0  0  0  0  0  0  0
   12.0180   -0.8200   21.3720 C   0  0  0  0  0  0  0  0  0  0  0  0
   13.0660   -0.1220   21.9940 C   0  0  0  0  0  0  0  0  0  0  0  0
   12.8290    0.5680   23.1950 C   0  0  0  0  0  0  0  0  0  0  0  0
   11.5680    0.4850   23.8130 C   0  0  0  0  0  0  0  0  0  0  0  0
   11.2460    1.2750   25.0610 C   0  0  0  0  0  0  0  0  0  0  0  0
   10.4170    2.5590   24.8020 C   0  0  0  0  0  0  0  0  0  0  0  0
    9.2060    2.3670   23.8730 C   0  0  0  0  0  0  0  0  0  0  0  0
    8.2310    1.6620   24.0800 O   0  0  0  0  0  0  0  0  0  0  0  0
    9.4240    3.2230   22.6990 C   0  0  0  0  0  0  0  0  0  0  0  0
   10.5590    3.9290   22.8240 C   0  0  0  0  0  0  0  0  0  0  0  0
   11.2280    3.6420   24.0890 C   0  0  0  0  0  0  0  0  0  0  0  0
   12.2280    4.1960   24.5000 O   0  0  0  0  0  0  0  0  0  0  0  0
   10.5610   -0.2890   23.2320 C   0  0  0  0  0  0  0  0  0  0  0  0
  1  2  2  0
  2  3  1  0
  2 10  1  0
  3  4  1  0
  4  5  2  0
  4  9  1  0
  5  6  1  0
  6  7  2  0
  7  8  1  0
  8  9  2  0
 10 11  1  0
 11 24  1  0
 11 12  2  0
 12 13  1  0
 13 14  2  0
 14 15  1  0
 15 16  1  0
 15 24  2  0
 16 17  1  0
 17 18  1  0
 17 22  1  0
 18 19  2  0
 18 20  1  0
 20 21  2  0
 21 22  1  0
 22 23  2  0
M  END
