WPC1055_minimised.pdb
     RDKit          3D

 24 25  0  0  0  0  0  0  0  0999 V2000
   14.1120    6.1670   21.9470 C   0  0  0  0  0  0  0  0  0  0  0  0
   13.2050    5.0260   22.4650 C   0  0  0  0  0  0  0  0  0  0  0  0
   12.6340    5.3340   23.8700 C   0  0  0  0  0  0  0  0  0  0  0  0
   14.0280    3.7240   22.4270 C   0  0  0  0  0  0  0  0  0  0  0  0
   13.3250    2.6390   23.0510 O   0  0  0  0  0  0  0  0  0  0  0  0
   13.9790    1.4460   23.0440 C   0  0  0  0  0  0  0  0  0  0  0  0
   15.0780    1.2690   22.5560 O   0  0  0  0  0  0  0  0  0  0  0  0
   13.2320    0.3190   23.7250 C   0  0  0  0  0  0  0  0  0  0  0  0
   11.7720    0.1770   23.3360 C   0  0  0  0  0  0  0  0  0  0  0  0
   11.3890   -0.8090   22.4100 C   0  0  0  0  0  0  0  0  0  0  0  0
   10.0520   -0.9090   22.0060 C   0  0  0  0  0  0  0  0  0  0  0  0
    9.0910   -0.0410   22.5460 C   0  0  0  0  0  0  0  0  0  0  0  0
    7.7740   -0.0490   22.0520 N   0  0  0  0  0  0  0  0  0  0  0  0
    7.4500    0.1920   20.7470 C   0  0  0  0  0  0  0  0  0  0  0  0
    8.2580    0.2790   19.8440 O   0  0  0  0  0  0  0  0  0  0  0  0
    6.1090    0.3690   20.5640 N   0  0  0  0  0  0  0  0  0  0  0  0
    5.5060    0.8950   19.3990 C   0  0  0  0  0  0  0  0  0  0  0  0
    4.5270    1.8850   19.5400 C   0  0  0  0  0  0  0  0  0  0  0  0
    4.0400    2.4870   18.3750 C   0  0  0  0  0  0  0  0  0  0  0  0
    4.5540    2.1020   17.1300 C   0  0  0  0  0  0  0  0  0  0  0  0
    5.4590    1.1070   16.9790 N   0  0  0  0  0  0  0  0  0  0  0  0
    5.9320    0.5320   18.1020 C   0  0  0  0  0  0  0  0  0  0  0  0
    9.4580    0.9050   23.5130 C   0  0  0  0  0  0  0  0  0  0  0  0
   10.7990    1.0150   23.9090 C   0  0  0  0  0  0  0  0  0  0  0  0
  1  2  1  0
  2  3  1  0
  2  4  1  0
  4  5  1  0
  5  6  1  0
  6  7  2  0
  6  8  1  0
  8  9  1  0
  9 24  2  0
  9 10  1  0
 10 11  2  0
 11 12  1  0
 12 13  1  0
 12 23  2  0
 13 14  1  0
 14 15  2  0
 14 16  1  0
 16 17  1  0
 17 18  2  0
 17 22  1  0
 18 19  1  0
 19 20  2  0
 20 21  1  0
 21 22  2  0
 23 24  1  0
M  END
