WPC1877_minimised.pdb
     RDKit          3D

 24 25  0  0  1  0  0  0  0  0999 V2000
    6.6020    3.7320   22.1130 C   0  0  0  0  0  0  0  0  0  0  0  0
    7.6510    4.5550   22.1390 C   0  0  0  0  0  0  0  0  0  0  0  0
    8.7540    4.2780   22.8890 O   0  0  0  0  0  0  0  0  0  0  0  0
    9.7070    5.2260   23.1350 C   0  0  0  0  0  0  0  0  0  0  0  0
    9.5300    6.4280   23.0040 O   0  0  0  0  0  0  0  0  0  0  0  0
   11.0400    4.6570   23.6910 C   0  0  2  0  0  0  0  0  0  0  0  0
   12.1450    4.6060   22.7010 N   0  0  0  0  0  0  0  0  0  0  0  0
   10.9240    3.3030   24.4400 C   0  0  0  0  0  0  0  0  0  0  0  0
   10.9150    2.0360   23.5910 C   0  0  0  0  0  0  0  0  0  0  0  0
   12.1180    1.4560   23.1440 C   0  0  0  0  0  0  0  0  0  0  0  0
   12.0980    0.2860   22.3660 C   0  0  0  0  0  0  0  0  0  0  0  0
   10.8710   -0.3080   22.0250 C   0  0  0  0  0  0  0  0  0  0  0  0
    9.6730    0.2590   22.4870 C   0  0  0  0  0  0  0  0  0  0  0  0
    8.4180   -0.2270   22.0760 N   0  0  0  0  0  0  0  0  0  0  0  0
    7.9630   -0.0880   20.7960 C   0  0  0  0  0  0  0  0  0  0  0  0
    8.6840    0.1050   19.8390 O   0  0  0  0  0  0  0  0  0  0  0  0
    6.5980   -0.1000   20.7030 N   0  0  0  0  0  0  0  0  0  0  0  0
    5.8890    0.4450   19.6070 C   0  0  0  0  0  0  0  0  0  0  0  0
    4.9250    1.4300   19.8510 C   0  0  0  0  0  0  0  0  0  0  0  0
    4.3670    2.0840   18.7470 C   0  0  0  0  0  0  0  0  0  0  0  0
    4.7930    1.7480   17.4540 C   0  0  0  0  0  0  0  0  0  0  0  0
    5.6850    0.7620   17.2070 N   0  0  0  0  0  0  0  0  0  0  0  0
    6.2290    0.1380   18.2710 C   0  0  0  0  0  0  0  0  0  0  0  0
    9.6990    1.4100   23.2830 C   0  0  0  0  0  0  0  0  0  0  0  0
  1  2  2  0
  2  3  1  0
  3  4  1  0
  4  5  2  0
  4  6  1  0
  6  7  1  6
  6  8  1  0
  8  9  1  0
  9 24  2  0
  9 10  1  0
 10 11  2  0
 11 12  1  0
 12 13  2  0
 13 14  1  0
 13 24  1  0
 14 15  1  0
 15 16  2  0
 15 17  1  0
 17 18  1  0
 18 19  2  0
 18 23  1  0
 19 20  1  0
 20 21  2  0
 21 22  1  0
 22 23  2  0
M  END
