WPC1511_minimised.pdb
     RDKit          3D

 24 25  0  0  0  0  0  0  0  0999 V2000
    4.6510    3.5560   21.9570 N   0  0  0  0  0  0  0  0  0  0  0  0
    5.8530    3.0620   22.3270 C   0  0  0  0  0  0  0  0  0  0  0  0
    5.9220    2.0460   23.0000 O   0  0  0  0  0  0  0  0  0  0  0  0
    6.9180    3.8000   21.8560 N   0  0  0  0  0  0  0  0  0  0  0  0
    8.2460    3.4920   22.0650 N   0  0  0  0  0  0  0  0  0  0  0  0
    8.9450    4.1000   22.9620 C   0  0  0  0  0  0  0  0  0  0  0  0
   10.4200    3.8340   23.2280 C   0  0  0  0  0  0  0  0  0  0  0  0
   10.7250    2.6470   24.1760 C   0  0  0  0  0  0  0  0  0  0  0  0
   10.4820    1.3060   23.5050 C   0  0  0  0  0  0  0  0  0  0  0  0
   11.5310    0.5500   22.9520 C   0  0  0  0  0  0  0  0  0  0  0  0
   11.2450   -0.6060   22.2030 C   0  0  0  0  0  0  0  0  0  0  0  0
    9.9090   -0.9730   21.9580 C   0  0  0  0  0  0  0  0  0  0  0  0
    8.8660   -0.2080   22.5070 C   0  0  0  0  0  0  0  0  0  0  0  0
    7.5120   -0.3280   22.1330 N   0  0  0  0  0  0  0  0  0  0  0  0
    7.0720   -0.5240   20.8560 C   0  0  0  0  0  0  0  0  0  0  0  0
    7.6270   -1.2150   20.0250 O   0  0  0  0  0  0  0  0  0  0  0  0
    5.9450    0.2120   20.6040 N   0  0  0  0  0  0  0  0  0  0  0  0
    5.5080    0.7310   19.3560 C   0  0  0  0  0  0  0  0  0  0  0  0
    4.4120    1.6020   19.3710 C   0  0  0  0  0  0  0  0  0  0  0  0
    4.1090    2.3100   18.2040 C   0  0  0  0  0  0  0  0  0  0  0  0
    4.8880    2.1130   17.0590 C   0  0  0  0  0  0  0  0  0  0  0  0
    5.8940    1.2140   16.9990 N   0  0  0  0  0  0  0  0  0  0  0  0
    6.2080    0.5590   18.1370 C   0  0  0  0  0  0  0  0  0  0  0  0
    9.1620    0.8780   23.3320 C   0  0  0  0  0  0  0  0  0  0  0  0
  1  2  1  0
  2  3  2  0
  2  4  1  0
  4  5  1  0
  5  6  2  0
  6  7  1  0
  7  8  1  0
  8  9  1  0
  9 24  2  0
  9 10  1  0
 10 11  2  0
 11 12  1  0
 12 13  2  0
 13 14  1  0
 13 24  1  0
 14 15  1  0
 15 16  2  0
 15 17  1  0
 17 18  1  0
 18 19  2  0
 18 23  1  0
 19 20  1  0
 20 21  2  0
 21 22  1  0
 22 23  2  0
M  END
