WPC1605_minimised.pdb
     RDKit          3D

 24 25  0  0  0  0  0  0  0  0999 V2000
   12.6250    9.5950   25.9390 C   0  0  0  0  0  0  0  0  0  0  0  0
   12.7490    8.0540   25.9990 C   0  0  0  0  0  0  0  0  0  0  0  0
   12.7200    7.4480   24.6950 O   0  0  0  0  0  0  0  0  0  0  0  0
   12.5400    6.0190   24.7530 C   0  0  0  0  0  0  0  0  0  0  0  0
   12.3740    5.4270   23.3380 C   0  0  0  0  0  0  0  0  0  0  0  0
   12.4350    3.8880   23.3360 C   0  0  0  0  0  0  0  0  0  0  0  0
   11.4540    3.3420   24.2830 N   0  0  0  0  0  0  0  0  0  0  0  0
   11.6380    1.9270   24.6400 C   0  0  0  0  0  0  0  0  0  0  0  0
   11.2920    0.9500   23.5400 C   0  0  0  0  0  0  0  0  0  0  0  0
   12.3060    0.2630   22.8480 C   0  0  0  0  0  0  0  0  0  0  0  0
   11.9720   -0.7300   21.9150 C   0  0  0  0  0  0  0  0  0  0  0  0
   10.6210   -1.0150   21.6600 C   0  0  0  0  0  0  0  0  0  0  0  0
    9.6110   -0.2960   22.3140 C   0  0  0  0  0  0  0  0  0  0  0  0
    8.2610   -0.4710   21.9570 N   0  0  0  0  0  0  0  0  0  0  0  0
    7.7810   -0.2060   20.7050 C   0  0  0  0  0  0  0  0  0  0  0  0
    8.4920    0.0000   19.7410 O   0  0  0  0  0  0  0  0  0  0  0  0
    6.4170   -0.1320   20.6460 N   0  0  0  0  0  0  0  0  0  0  0  0
    5.7070    0.4460   19.5670 C   0  0  0  0  0  0  0  0  0  0  0  0
    4.7610    1.4420   19.8370 C   0  0  0  0  0  0  0  0  0  0  0  0
    4.2030    2.1220   18.7470 C   0  0  0  0  0  0  0  0  0  0  0  0
    4.6130    1.7990   17.4450 C   0  0  0  0  0  0  0  0  0  0  0  0
    5.4860    0.8020   17.1740 N   0  0  0  0  0  0  0  0  0  0  0  0
    6.0260    0.1520   18.2230 C   0  0  0  0  0  0  0  0  0  0  0  0
    9.9450    0.6730   23.2650 C   0  0  0  0  0  0  0  0  0  0  0  0
  1  2  1  0
  2  3  1  0
  3  4  1  0
  4  5  1  0
  5  6  1  0
  6  7  1  0
  7  8  1  0
  8  9  1  0
  9 24  2  0
  9 10  1  0
 10 11  2  0
 11 12  1  0
 12 13  2  0
 13 14  1  0
 13 24  1  0
 14 15  1  0
 15 16  2  0
 15 17  1  0
 17 18  1  0
 18 19  2  0
 18 23  1  0
 19 20  1  0
 20 21  2  0
 21 22  1  0
 22 23  2  0
M  END
