WPC1696_minimised.pdb
     RDKit          3D

 22 23  0  0  0  0  0  0  0  0999 V2000
   13.7920    5.5100   22.6450 N   0  0  0  0  0  0  0  0  0  0  0  0
   12.6490    5.4300   23.3680 C   0  0  0  0  0  0  0  0  0  0  0  0
   12.4550    6.2770   24.7790 S   0  0  0  0  0  0  0  0  0  0  0  0
   11.7340    4.5690   22.8360 N   0  0  0  0  0  0  0  0  0  0  0  0
   10.4930    4.1900   23.5220 C   0  0  0  0  0  0  0  0  0  0  0  0
   10.7190    2.9300   24.3780 C   0  0  0  0  0  0  0  0  0  0  0  0
   10.7850    1.6630   23.5470 C   0  0  0  0  0  0  0  0  0  0  0  0
   12.0120    1.1090   23.1390 C   0  0  0  0  0  0  0  0  0  0  0  0
   12.0300   -0.0440   22.3350 C   0  0  0  0  0  0  0  0  0  0  0  0
   10.8220   -0.6430   21.9370 C   0  0  0  0  0  0  0  0  0  0  0  0
    9.6010   -0.0890   22.3520 C   0  0  0  0  0  0  0  0  0  0  0  0
    8.3660   -0.5780   21.8890 N   0  0  0  0  0  0  0  0  0  0  0  0
    7.8940   -0.3000   20.6400 C   0  0  0  0  0  0  0  0  0  0  0  0
    8.6010    0.0250   19.7070 O   0  0  0  0  0  0  0  0  0  0  0  0
    6.5290   -0.3240   20.5550 N   0  0  0  0  0  0  0  0  0  0  0  0
    5.8110    0.3040   19.5110 C   0  0  0  0  0  0  0  0  0  0  0  0
    4.8820    1.3040   19.8250 C   0  0  0  0  0  0  0  0  0  0  0  0
    4.3200    2.0270   18.7640 C   0  0  0  0  0  0  0  0  0  0  0  0
    4.7110    1.7430   17.4480 C   0  0  0  0  0  0  0  0  0  0  0  0
    5.5780    0.7540   17.1370 N   0  0  0  0  0  0  0  0  0  0  0  0
    6.1210    0.0610   18.1570 C   0  0  0  0  0  0  0  0  0  0  0  0
    9.5860    1.0540   23.1560 C   0  0  0  0  0  0  0  0  0  0  0  0
  1  2  1  0
  2  3  2  0
  2  4  1  0
  4  5  1  0
  5  6  1  0
  6  7  1  0
  7 22  2  0
  7  8  1  0
  8  9  2  0
  9 10  1  0
 10 11  2  0
 11 12  1  0
 11 22  1  0
 12 13  1  0
 13 14  2  0
 13 15  1  0
 15 16  1  0
 16 17  2  0
 16 21  1  0
 17 18  1  0
 18 19  2  0
 19 20  1  0
 20 21  2  0
M  END
