WPC1213_minimised.pdb
     RDKit          3D

 21 22  0  0  0  0  0  0  0  0999 V2000
   11.9480    5.2130   22.3720 N   0  0  0  0  0  0  0  0  0  0  0  0
   10.8810    5.4120   23.3500 C   0  0  0  0  0  0  0  0  0  0  0  0
   10.0650    4.1220   23.5450 C   0  0  0  0  0  0  0  0  0  0  0  0
   10.8100    3.0580   24.3810 C   0  0  0  0  0  0  0  0  0  0  0  0
   12.2160    2.2780   23.4690 S   0  0  0  0  0  0  0  0  0  0  0  0
   11.5910    0.7040   22.9330 C   0  0  0  0  0  0  0  0  0  0  0  0
   12.4520   -0.4000   22.8970 C   0  0  0  0  0  0  0  0  0  0  0  0
   11.9480   -1.6800   22.6110 C   0  0  0  0  0  0  0  0  0  0  0  0
   10.5870   -1.8440   22.3040 C   0  0  0  0  0  0  0  0  0  0  0  0
    9.7450   -0.7250   22.2660 C   0  0  0  0  0  0  0  0  0  0  0  0
    8.4000   -0.8410   21.8740 N   0  0  0  0  0  0  0  0  0  0  0  0
    7.9060   -0.2860   20.7300 C   0  0  0  0  0  0  0  0  0  0  0  0
    8.5980    0.2350   19.8800 O   0  0  0  0  0  0  0  0  0  0  0  0
    6.5460   -0.3240   20.6300 N   0  0  0  0  0  0  0  0  0  0  0  0
    5.8310    0.3180   19.5930 C   0  0  0  0  0  0  0  0  0  0  0  0
    4.8990    1.3160   19.9040 C   0  0  0  0  0  0  0  0  0  0  0  0
    4.3370    2.0340   18.8390 C   0  0  0  0  0  0  0  0  0  0  0  0
    4.7290    1.7450   17.5220 C   0  0  0  0  0  0  0  0  0  0  0  0
    5.6020    0.7600   17.2150 N   0  0  0  0  0  0  0  0  0  0  0  0
    6.1490    0.0770   18.2400 C   0  0  0  0  0  0  0  0  0  0  0  0
   10.2440    0.5440   22.5830 C   0  0  0  0  0  0  0  0  0  0  0  0
  1  2  1  0
  2  3  1  0
  3  4  1  0
  4  5  1  0
  5  6  1  0
  6 21  2  0
  6  7  1  0
  7  8  2  0
  8  9  1  0
  9 10  2  0
 10 11  1  0
 10 21  1  0
 11 12  1  0
 12 13  2  0
 12 14  1  0
 14 15  1  0
 15 16  2  0
 15 20  1  0
 16 17  1  0
 17 18  2  0
 18 19  1  0
 19 20  2  0
M  END
