WPC1069_minimised.pdb
     RDKit          3D

 22 23  0  0  0  0  0  0  0  0999 V2000
    8.3520   -0.0270   19.7030 O   0  0  0  0  0  0  0  0  0  0  0  0
    7.5700   -0.2980   20.5940 C   0  0  0  0  0  0  0  0  0  0  0  0
    6.2210   -0.1340   20.4660 N   0  0  0  0  0  0  0  0  0  0  0  0
    5.5940    0.5280   19.3870 C   0  0  0  0  0  0  0  0  0  0  0  0
    4.6500    1.5280   19.6490 C   0  0  0  0  0  0  0  0  0  0  0  0
    4.1510    2.2510   18.5580 C   0  0  0  0  0  0  0  0  0  0  0  0
    4.6240    1.9730   17.2670 C   0  0  0  0  0  0  0  0  0  0  0  0
    5.5070    0.9840   17.0030 N   0  0  0  0  0  0  0  0  0  0  0  0
    5.9840    0.2870   18.0520 C   0  0  0  0  0  0  0  0  0  0  0  0
    7.9280   -0.7440   21.8350 N   0  0  0  0  0  0  0  0  0  0  0  0
    9.2460   -0.6930   22.3270 C   0  0  0  0  0  0  0  0  0  0  0  0
   10.2950   -1.2950   21.6220 C   0  0  0  0  0  0  0  0  0  0  0  0
   11.6270   -1.0600   21.9940 C   0  0  0  0  0  0  0  0  0  0  0  0
   11.9020   -0.2440   23.1010 C   0  0  0  0  0  0  0  0  0  0  0  0
   10.8460    0.2860   23.8630 C   0  0  0  0  0  0  0  0  0  0  0  0
   11.1200    1.0930   25.1120 C   0  0  0  0  0  0  0  0  0  0  0  0
   10.2590    2.2830   25.2320 N   0  0  0  0  0  0  0  0  0  0  0  0
   10.8440    3.5470   24.7520 C   0  0  0  0  0  0  0  0  0  0  0  0
   11.2690    3.5230   23.2720 C   0  0  0  0  0  0  0  0  0  0  0  0
   12.1550    4.7300   22.9130 C   0  0  0  0  0  0  0  0  0  0  0  0
   13.4380    4.5880   23.5270 O   0  0  0  0  0  0  0  0  0  0  0  0
    9.5190    0.0710   23.4640 C   0  0  0  0  0  0  0  0  0  0  0  0
  1  2  2  0
  2 10  1  0
  2  3  1  0
  3  4  1  0
  4  5  2  0
  4  9  1  0
  5  6  1  0
  6  7  2  0
  7  8  1  0
  8  9  2  0
 10 11  1  0
 11 12  2  0
 11 22  1  0
 12 13  1  0
 13 14  2  0
 14 15  1  0
 15 16  1  0
 15 22  2  0
 16 17  1  0
 17 18  1  0
 18 19  1  0
 19 20  1  0
 20 21  1  0
M  END
