WPC1634_minimised.pdb
     RDKit          3D

 24 26  0  0  0  0  0  0  0  0999 V2000
    8.7650    0.0460   19.8070 O   0  0  0  0  0  0  0  0  0  0  0  0
    8.1150   -0.3960   20.7300 C   0  0  0  0  0  0  0  0  0  0  0  0
    6.7520   -0.4870   20.6710 N   0  0  0  0  0  0  0  0  0  0  0  0
    5.9930    0.1490   19.6580 C   0  0  0  0  0  0  0  0  0  0  0  0
    5.1070    1.1780   20.0050 C   0  0  0  0  0  0  0  0  0  0  0  0
    4.5040    1.8990   18.9650 C   0  0  0  0  0  0  0  0  0  0  0  0
    4.8140    1.5860   17.6330 C   0  0  0  0  0  0  0  0  0  0  0  0
    5.6480    0.5780   17.2920 N   0  0  0  0  0  0  0  0  0  0  0  0
    6.2340   -0.1100   18.2920 C   0  0  0  0  0  0  0  0  0  0  0  0
    8.6470   -0.7520   21.9390 N   0  0  0  0  0  0  0  0  0  0  0  0
    9.8270   -0.1530   22.4260 C   0  0  0  0  0  0  0  0  0  0  0  0
   11.0960   -0.4800   21.9260 C   0  0  0  0  0  0  0  0  0  0  0  0
   12.2130    0.2840   22.3120 C   0  0  0  0  0  0  0  0  0  0  0  0
   12.0500    1.3940   23.1610 C   0  0  0  0  0  0  0  0  0  0  0  0
   10.7740    1.7210   23.6590 C   0  0  0  0  0  0  0  0  0  0  0  0
   10.5440    2.9380   24.5400 C   0  0  0  0  0  0  0  0  0  0  0  0
   10.0550    4.1320   23.8190 N   0  0  0  0  0  0  0  0  0  0  0  0
    8.8470    4.2080   23.1630 C   0  0  0  0  0  0  0  0  0  0  0  0
    7.9590    3.3730   23.1020 O   0  0  0  0  0  0  0  0  0  0  0  0
    8.8740    5.5710   22.6330 C   0  0  0  0  0  0  0  0  0  0  0  0
    9.9550    6.2220   23.0220 N   0  0  0  0  0  0  0  0  0  0  0  0
   10.7430    5.3260   23.7320 C   0  0  0  0  0  0  0  0  0  0  0  0
   12.2200    5.6950   24.4180 S   0  0  0  0  0  0  0  0  0  0  0  0
    9.6810    0.9110   23.3190 C   0  0  0  0  0  0  0  0  0  0  0  0
  1  2  2  0
  2  3  1  0
  2 10  1  0
  3  4  1  0
  4  5  2  0
  4  9  1  0
  5  6  1  0
  6  7  2  0
  7  8  1  0
  8  9  2  0
 10 11  1  0
 11 24  1  0
 11 12  2  0
 12 13  1  0
 13 14  2  0
 14 15  1  0
 15 16  1  0
 15 24  2  0
 16 17  1  0
 17 18  1  0
 17 22  1  0
 18 19  2  0
 18 20  1  0
 20 21  2  0
 21 22  1  0
 22 23  2  0
M  END
