WPC1718_minimised.pdb
     RDKit          3D

 23 24  0  0  0  0  0  0  0  0999 V2000
    9.5720    5.9600   23.0180 C   0  0  0  0  0  0  0  0  0  0  0  0
   10.5210    5.6390   24.0500 O   0  0  0  0  0  0  0  0  0  0  0  0
   11.0210    4.3150   23.9190 N   0  0  0  0  0  0  0  0  0  0  0  0
   10.3600    3.3490   24.8050 C   0  0  0  0  0  0  0  0  0  0  0  0
   12.0690    4.0670   23.0220 C   0  0  0  0  0  0  0  0  0  0  0  0
   12.5030    4.9350   22.2840 O   0  0  0  0  0  0  0  0  0  0  0  0
   12.7510    2.6910   23.1090 C   0  0  0  0  0  0  0  0  0  0  0  0
   12.0750    1.4730   22.4810 C   0  0  0  0  0  0  0  0  0  0  0  0
   12.8630    0.3240   22.2840 C   0  0  0  0  0  0  0  0  0  0  0  0
   12.2790   -0.8850   21.8770 C   0  0  0  0  0  0  0  0  0  0  0  0
   10.8900   -0.9630   21.6980 C   0  0  0  0  0  0  0  0  0  0  0  0
   10.0970    0.1780   21.8800 C   0  0  0  0  0  0  0  0  0  0  0  0
    8.6970    0.0930   21.7340 N   0  0  0  0  0  0  0  0  0  0  0  0
    8.0400    0.0560   20.5390 C   0  0  0  0  0  0  0  0  0  0  0  0
    8.6070   -0.0120   19.4710 O   0  0  0  0  0  0  0  0  0  0  0  0
    6.6810    0.1820   20.6450 N   0  0  0  0  0  0  0  0  0  0  0  0
    5.8480    0.6290   19.5910 C   0  0  0  0  0  0  0  0  0  0  0  0
    4.9120    1.6360   19.8610 C   0  0  0  0  0  0  0  0  0  0  0  0
    4.2370    2.2060   18.7750 C   0  0  0  0  0  0  0  0  0  0  0  0
    4.5400    1.7850   17.4730 C   0  0  0  0  0  0  0  0  0  0  0  0
    5.3900    0.7680   17.2090 N   0  0  0  0  0  0  0  0  0  0  0  0
    6.0300    0.2090   18.2540 C   0  0  0  0  0  0  0  0  0  0  0  0
   10.6910    1.4020   22.2290 C   0  0  0  0  0  0  0  0  0  0  0  0
  1  2  1  0
  2  3  1  0
  3  4  1  0
  3  5  1  0
  5  6  2  0
  5  7  1  0
  7  8  1  0
  8 23  2  0
  8  9  1  0
  9 10  2  0
 10 11  1  0
 11 12  2  0
 12 13  1  0
 12 23  1  0
 13 14  1  0
 14 15  2  0
 14 16  1  0
 16 17  1  0
 17 18  2  0
 17 22  1  0
 18 19  1  0
 19 20  2  0
 20 21  1  0
 21 22  2  0
M  END
