WPC1604_minimised.pdb
     RDKit          3D

 24 26  0  0  0  0  0  0  0  0999 V2000
    8.6150    0.0530   19.7320 O   0  0  0  0  0  0  0  0  0  0  0  0
    7.8720   -0.2360   20.6470 C   0  0  0  0  0  0  0  0  0  0  0  0
    6.5110   -0.2520   20.5250 N   0  0  0  0  0  0  0  0  0  0  0  0
    5.8230    0.3650   19.4540 C   0  0  0  0  0  0  0  0  0  0  0  0
    4.8810    1.3610   19.7390 C   0  0  0  0  0  0  0  0  0  0  0  0
    4.3370    2.0720   18.6620 C   0  0  0  0  0  0  0  0  0  0  0  0
    4.7650    1.7880   17.3580 C   0  0  0  0  0  0  0  0  0  0  0  0
    5.6440    0.8010   17.0740 N   0  0  0  0  0  0  0  0  0  0  0  0
    6.1670    0.1160   18.1100 C   0  0  0  0  0  0  0  0  0  0  0  0
    8.2950   -0.4740   21.9210 N   0  0  0  0  0  0  0  0  0  0  0  0
    9.5050    0.0420   22.4190 C   0  0  0  0  0  0  0  0  0  0  0  0
   10.7430   -0.5490   22.1260 C   0  0  0  0  0  0  0  0  0  0  0  0
   11.9250    0.0480   22.5990 C   0  0  0  0  0  0  0  0  0  0  0  0
   11.8640    1.2320   23.3560 C   0  0  0  0  0  0  0  0  0  0  0  0
   10.6210    1.8500   23.6080 C   0  0  0  0  0  0  0  0  0  0  0  0
   10.4910    3.1670   24.3670 C   0  0  0  0  0  0  0  0  0  0  0  0
   11.4160    4.2370   23.9860 N   0  0  0  0  0  0  0  0  0  0  0  0
   12.1750    4.3170   22.8390 C   0  0  0  0  0  0  0  0  0  0  0  0
   12.9490    5.4350   23.0090 C   0  0  0  0  0  0  0  0  0  0  0  0
   14.1520    6.0230   21.9100 Cl  0  0  0  0  0  0  0  0  0  0  0  0
   12.5220    6.0200   24.1880 N   0  0  0  0  0  0  0  0  0  0  0  0
   12.8950    7.1170   24.6250 O   0  0  0  0  0  0  0  0  0  0  0  0
   11.5560    5.3020   24.8290 N   0  0  0  0  0  0  0  0  0  0  0  0
    9.4480    1.2350   23.1460 C   0  0  0  0  0  0  0  0  0  0  0  0
  1  2  2  0
  2 10  1  0
  2  3  1  0
  3  4  1  0
  4  5  2  0
  4  9  1  0
  5  6  1  0
  6  7  2  0
  7  8  1  0
  8  9  2  0
 10 11  1  0
 11 12  2  0
 11 24  1  0
 12 13  1  0
 13 14  2  0
 14 15  1  0
 15 16  1  0
 15 24  2  0
 16 17  1  0
 17 18  1  0
 17 23  1  0
 18 19  2  0
 19 21  1  0
 19 20  1  0
 21 22  1  0
 21 23  1  0
M  END
