WPC1026_minimised.pdb
     RDKit          3D

 24 25  0  0  0  0  0  0  0  0999 V2000
   14.8130    1.7490   22.4000 C   0  0  0  0  0  0  0  0  0  0  0  0
   13.4470    1.8020   23.0530 C   0  0  0  0  0  0  0  0  0  0  0  0
   13.0470    0.4870   23.6810 C   0  0  0  0  0  0  0  0  0  0  0  0
   11.6250    0.0880   23.3450 C   0  0  0  0  0  0  0  0  0  0  0  0
   11.3750   -0.7750   22.2650 C   0  0  0  0  0  0  0  0  0  0  0  0
   10.0560   -1.0180   21.8610 C   0  0  0  0  0  0  0  0  0  0  0  0
    8.9910   -0.3880   22.5230 C   0  0  0  0  0  0  0  0  0  0  0  0
    7.6920   -0.4350   21.9820 N   0  0  0  0  0  0  0  0  0  0  0  0
    7.3970   -0.0930   20.6910 C   0  0  0  0  0  0  0  0  0  0  0  0
    8.2200    0.0520   19.8060 O   0  0  0  0  0  0  0  0  0  0  0  0
    6.0610    0.1170   20.5020 N   0  0  0  0  0  0  0  0  0  0  0  0
    5.4880    0.7290   19.3640 C   0  0  0  0  0  0  0  0  0  0  0  0
    4.5270    1.7300   19.5460 C   0  0  0  0  0  0  0  0  0  0  0  0
    4.0720    2.4080   18.4090 C   0  0  0  0  0  0  0  0  0  0  0  0
    4.6000    2.0840   17.1520 C   0  0  0  0  0  0  0  0  0  0  0  0
    5.4930    1.0860   16.9610 N   0  0  0  0  0  0  0  0  0  0  0  0
    5.9320    0.4360   18.0560 C   0  0  0  0  0  0  0  0  0  0  0  0
    9.2350    0.4140   23.6460 C   0  0  0  0  0  0  0  0  0  0  0  0
   10.5530    0.6490   24.0620 C   0  0  0  0  0  0  0  0  0  0  0  0
   12.6590    2.8240   23.0190 N   0  0  0  0  0  0  0  0  0  0  0  0
   12.9930    3.9620   22.3330 N   0  0  0  0  0  0  0  0  0  0  0  0
   13.2100    5.1860   22.9180 C   0  0  0  0  0  0  0  0  0  0  0  0
   14.0120    5.9740   22.1510 N   0  0  0  0  0  0  0  0  0  0  0  0
   12.7760    5.6500   24.4540 S   0  0  0  0  0  0  0  0  0  0  0  0
  1  2  1  0
  2 20  2  0
  2  3  1  0
  3  4  1  0
  4 19  2  0
  4  5  1  0
  5  6  2  0
  6  7  1  0
  7  8  1  0
  7 18  2  0
  8  9  1  0
  9 10  2  0
  9 11  1  0
 11 12  1  0
 12 13  2  0
 12 17  1  0
 13 14  1  0
 14 15  2  0
 15 16  1  0
 16 17  2  0
 18 19  1  0
 20 21  1  0
 21 22  1  0
 22 23  1  0
 22 24  2  0
M  END
