WPC1923_minimised.pdb
     RDKit          3D

 24 26  0  0  0  0  0  0  0  0999 V2000
    8.2740    0.1340   19.7000 O   0  0  0  0  0  0  0  0  0  0  0  0
    7.4860    0.0260   20.6170 C   0  0  0  0  0  0  0  0  0  0  0  0
    6.1440    0.2320   20.4760 N   0  0  0  0  0  0  0  0  0  0  0  0
    5.5290    0.8090   19.3440 C   0  0  0  0  0  0  0  0  0  0  0  0
    4.5640    1.8060   19.5330 C   0  0  0  0  0  0  0  0  0  0  0  0
    4.0710    2.4550   18.3950 C   0  0  0  0  0  0  0  0  0  0  0  0
    4.5690    2.1110   17.1310 C   0  0  0  0  0  0  0  0  0  0  0  0
    5.4640    1.1160   16.9370 N   0  0  0  0  0  0  0  0  0  0  0  0
    5.9360    0.4900   18.0310 C   0  0  0  0  0  0  0  0  0  0  0  0
    7.8360   -0.2570   21.9040 N   0  0  0  0  0  0  0  0  0  0  0  0
    9.1630   -0.2440   22.3630 C   0  0  0  0  0  0  0  0  0  0  0  0
   10.0610   -1.2410   21.9620 C   0  0  0  0  0  0  0  0  0  0  0  0
   11.4060   -1.1610   22.3500 C   0  0  0  0  0  0  0  0  0  0  0  0
   11.8480   -0.0750   23.1230 C   0  0  0  0  0  0  0  0  0  0  0  0
   10.9430    0.9160   23.5400 C   0  0  0  0  0  0  0  0  0  0  0  0
   11.4000    2.0380   24.4530 C   0  0  0  0  0  0  0  0  0  0  0  0
   11.5140    3.4280   23.7840 C   0  0  0  0  0  0  0  0  0  0  0  0
   12.5340    3.5400   22.7180 N   0  0  0  0  0  0  0  0  0  0  0  0
   13.8980    3.1060   23.0680 C   0  0  0  0  0  0  0  0  0  0  0  0
   14.8450    3.2430   21.9090 C   0  0  0  0  0  0  0  0  0  0  0  0
   14.6480    4.1050   20.9120 C   0  0  0  0  0  0  0  0  0  0  0  0
   13.4130    4.9700   20.8640 C   0  0  0  0  0  0  0  0  0  0  0  0
   12.5730    4.9050   22.1590 C   0  0  0  0  0  0  0  0  0  0  0  0
    9.5970    0.8260   23.1570 C   0  0  0  0  0  0  0  0  0  0  0  0
  1  2  2  0
  2  3  1  0
  2 10  1  0
  3  4  1  0
  4  5  2  0
  4  9  1  0
  5  6  1  0
  6  7  2  0
  7  8  1  0
  8  9  2  0
 10 11  1  0
 11 24  1  0
 11 12  2  0
 12 13  1  0
 13 14  2  0
 14 15  1  0
 15 16  1  0
 15 24  2  0
 16 17  1  0
 17 18  1  0
 18 19  1  0
 18 23  1  0
 19 20  1  0
 20 21  2  0
 21 22  1  0
 22 23  1  0
M  END
