WPC1708_minimised.pdb
     RDKit          3D

 23 25  0  0  0  0  0  0  0  0999 V2000
    8.6050    0.0250   19.6960 O   0  0  0  0  0  0  0  0  0  0  0  0
    7.9020   -0.3750   20.6010 C   0  0  0  0  0  0  0  0  0  0  0  0
    6.5390   -0.4160   20.5070 N   0  0  0  0  0  0  0  0  0  0  0  0
    5.8230    0.2450   19.4820 C   0  0  0  0  0  0  0  0  0  0  0  0
    4.9020    1.2440   19.8210 C   0  0  0  0  0  0  0  0  0  0  0  0
    4.3450    1.9980   18.7790 C   0  0  0  0  0  0  0  0  0  0  0  0
    4.7400    1.7490   17.4560 C   0  0  0  0  0  0  0  0  0  0  0  0
    5.6020    0.7630   17.1210 N   0  0  0  0  0  0  0  0  0  0  0  0
    6.1360    0.0380   18.1230 C   0  0  0  0  0  0  0  0  0  0  0  0
    8.3690   -0.7250   21.8340 N   0  0  0  0  0  0  0  0  0  0  0  0
    9.5620   -0.1940   22.3540 C   0  0  0  0  0  0  0  0  0  0  0  0
   10.8230   -0.6680   21.9620 C   0  0  0  0  0  0  0  0  0  0  0  0
   11.9840   -0.0170   22.4170 C   0  0  0  0  0  0  0  0  0  0  0  0
   11.8780    1.1100   23.2530 C   0  0  0  0  0  0  0  0  0  0  0  0
   10.6100    1.5820   23.6380 C   0  0  0  0  0  0  0  0  0  0  0  0
   10.4390    2.8100   24.5050 C   0  0  0  0  0  0  0  0  0  0  0  0
    9.5500    4.1510   23.5970 S   0  0  0  0  0  0  0  0  0  0  0  0
   10.8470    5.3060   23.4760 C   0  0  0  0  0  0  0  0  0  0  0  0
   11.8720    4.9710   22.6400 N   0  0  0  0  0  0  0  0  0  0  0  0
   13.0030    5.5580   23.1730 C   0  0  0  0  0  0  0  0  0  0  0  0
   12.5890    6.1630   24.3390 C   0  0  0  0  0  0  0  0  0  0  0  0
   11.2570    5.9250   24.5590 N   0  0  0  0  0  0  0  0  0  0  0  0
    9.4600    0.9190   23.1930 C   0  0  0  0  0  0  0  0  0  0  0  0
  1  2  2  0
  2  3  1  0
  2 10  1  0
  3  4  1  0
  4  5  2  0
  4  9  1  0
  5  6  1  0
  6  7  2  0
  7  8  1  0
  8  9  2  0
 10 11  1  0
 11 23  1  0
 11 12  2  0
 12 13  1  0
 13 14  2  0
 14 15  1  0
 15 16  1  0
 15 23  2  0
 16 17  1  0
 17 18  1  0
 18 19  1  0
 18 22  2  0
 19 20  1  0
 20 21  2  0
 21 22  1  0
M  END
