WPC1555_minimised.pdb
     RDKit          3D

 23 24  0  0  0  0  0  0  0  0999 V2000
    6.8100    4.6300   21.4420 N   0  0  0  0  0  0  0  0  0  0  0  0
    7.4220    3.8300   22.3550 C   0  0  0  0  0  0  0  0  0  0  0  0
    6.7170    2.4130   22.8960 S   0  0  0  0  0  0  0  0  0  0  0  0
    8.6310    4.3710   22.7510 N   0  0  0  0  0  0  0  0  0  0  0  0
    9.5150    3.7570   23.5970 N   0  0  0  0  0  0  0  0  0  0  0  0
   10.6650    3.4060   23.1370 C   0  0  0  0  0  0  0  0  0  0  0  0
   11.5340    2.3830   23.8270 C   0  0  0  0  0  0  0  0  0  0  0  0
   11.3380    1.0200   23.1890 C   0  0  0  0  0  0  0  0  0  0  0  0
   12.4200    0.2660   22.6980 C   0  0  0  0  0  0  0  0  0  0  0  0
   12.1800   -0.9360   22.0080 C   0  0  0  0  0  0  0  0  0  0  0  0
   10.8600   -1.3610   21.7770 C   0  0  0  0  0  0  0  0  0  0  0  0
    9.7860   -0.5980   22.2510 C   0  0  0  0  0  0  0  0  0  0  0  0
    8.4600   -0.8500   21.8510 N   0  0  0  0  0  0  0  0  0  0  0  0
    7.9900   -0.4450   20.6320 C   0  0  0  0  0  0  0  0  0  0  0  0
    8.6960   -0.1880   19.6790 O   0  0  0  0  0  0  0  0  0  0  0  0
    6.6350   -0.2930   20.5880 N   0  0  0  0  0  0  0  0  0  0  0  0
    5.9330    0.3440   19.5370 C   0  0  0  0  0  0  0  0  0  0  0  0
    5.0020    1.3460   19.8380 C   0  0  0  0  0  0  0  0  0  0  0  0
    4.4140    2.0360   18.7700 C   0  0  0  0  0  0  0  0  0  0  0  0
    4.7900    1.7250   17.4550 C   0  0  0  0  0  0  0  0  0  0  0  0
    5.6620    0.7380   17.1550 N   0  0  0  0  0  0  0  0  0  0  0  0
    6.2230    0.0710   18.1840 C   0  0  0  0  0  0  0  0  0  0  0  0
   10.0280    0.5580   22.9920 C   0  0  0  0  0  0  0  0  0  0  0  0
  1  2  1  0
  2  3  2  0
  2  4  1  0
  4  5  1  0
  5  6  2  0
  6  7  1  0
  7  8  1  0
  8 23  2  0
  8  9  1  0
  9 10  2  0
 10 11  1  0
 11 12  2  0
 12 13  1  0
 12 23  1  0
 13 14  1  0
 14 15  2  0
 14 16  1  0
 16 17  1  0
 17 18  2  0
 17 22  1  0
 18 19  1  0
 19 20  2  0
 20 21  1  0
 21 22  2  0
M  END
