WPC1527_minimised.pdb
     RDKit          3D

 21 22  0  0  1  0  0  0  0  0999 V2000
   12.0300    6.0030   24.8760 C   0  0  0  0  0  0  0  0  0  0  0  0
   11.8500    5.4410   23.4560 C   0  0  2  0  0  0  0  0  0  0  0  0
   10.5040    5.7660   22.9810 N   0  0  0  0  0  0  0  0  0  0  0  0
   12.0830    3.9280   23.3450 C   0  0  0  0  0  0  0  0  0  0  0  0
   11.0270    2.9500   24.4900 S   0  0  0  0  0  0  0  0  0  0  0  0
   10.9430    1.4110   23.6130 C   0  0  0  0  0  0  0  0  0  0  0  0
   12.1020    0.7520   23.1700 C   0  0  0  0  0  0  0  0  0  0  0  0
   11.9920   -0.3940   22.3640 C   0  0  0  0  0  0  0  0  0  0  0  0
   10.7210   -0.8730   21.9990 C   0  0  0  0  0  0  0  0  0  0  0  0
    9.5680   -0.2120   22.4530 C   0  0  0  0  0  0  0  0  0  0  0  0
    8.2870   -0.5730   21.9970 N   0  0  0  0  0  0  0  0  0  0  0  0
    7.8470   -0.2830   20.7380 C   0  0  0  0  0  0  0  0  0  0  0  0
    8.5810   -0.0070   19.8100 O   0  0  0  0  0  0  0  0  0  0  0  0
    6.4850   -0.2500   20.6340 N   0  0  0  0  0  0  0  0  0  0  0  0
    5.7940    0.3620   19.5610 C   0  0  0  0  0  0  0  0  0  0  0  0
    4.8530    1.3610   19.8390 C   0  0  0  0  0  0  0  0  0  0  0  0
    4.3020    2.0570   18.7560 C   0  0  0  0  0  0  0  0  0  0  0  0
    4.7180    1.7500   17.4520 C   0  0  0  0  0  0  0  0  0  0  0  0
    5.5960    0.7600   17.1730 N   0  0  0  0  0  0  0  0  0  0  0  0
    6.1280    0.0930   18.2170 C   0  0  0  0  0  0  0  0  0  0  0  0
    9.6810    0.9200   23.2660 C   0  0  0  0  0  0  0  0  0  0  0  0
  2  1  1  1
  2  3  1  0
  2  4  1  0
  4  5  1  0
  5  6  1  0
  6 21  2  0
  6  7  1  0
  7  8  2  0
  8  9  1  0
  9 10  2  0
 10 11  1  0
 10 21  1  0
 11 12  1  0
 12 13  2  0
 12 14  1  0
 14 15  1  0
 15 16  2  0
 15 20  1  0
 16 17  1  0
 17 18  2  0
 18 19  1  0
 19 20  2  0
M  END
