WPC1295_minimised.pdb
     RDKit          3D

 24 26  0  0  0  0  0  0  0  0999 V2000
   11.1710    3.1220   21.3660 N   0  0  0  0  0  0  0  0  0  0  0  0
   11.9550    4.0100   22.1200 N   0  0  0  0  0  0  0  0  0  0  0  0
   13.2870    4.1600   21.9470 N   0  0  0  0  0  0  0  0  0  0  0  0
   13.6790    4.9240   22.9340 N   0  0  0  0  0  0  0  0  0  0  0  0
   12.6580    5.2460   23.7930 N   0  0  0  0  0  0  0  0  0  0  0  0
   11.5870    4.7900   23.1890 C   0  0  0  0  0  0  0  0  0  0  0  0
   10.1100    4.4220   24.0640 S   0  0  0  0  0  0  0  0  0  0  0  0
   10.6630    2.9380   25.0020 C   0  0  0  0  0  0  0  0  0  0  0  0
   10.8230    1.7120   24.1250 C   0  0  0  0  0  0  0  0  0  0  0  0
   12.0930    1.2410   23.7410 C   0  0  0  0  0  0  0  0  0  0  0  0
   12.2050    0.1660   22.8440 C   0  0  0  0  0  0  0  0  0  0  0  0
   11.0480   -0.4530   22.3420 C   0  0  0  0  0  0  0  0  0  0  0  0
    9.7850    0.0060   22.7440 C   0  0  0  0  0  0  0  0  0  0  0  0
    8.6110   -0.4940   22.1560 N   0  0  0  0  0  0  0  0  0  0  0  0
    8.1520   -0.0680   20.9440 C   0  0  0  0  0  0  0  0  0  0  0  0
    8.8230    0.5790   20.1660 O   0  0  0  0  0  0  0  0  0  0  0  0
    6.8390   -0.3680   20.7220 N   0  0  0  0  0  0  0  0  0  0  0  0
    6.0790    0.1840   19.6670 C   0  0  0  0  0  0  0  0  0  0  0  0
    5.0700    1.1090   19.9630 C   0  0  0  0  0  0  0  0  0  0  0  0
    4.4250    1.7360   18.8900 C   0  0  0  0  0  0  0  0  0  0  0  0
    4.8030    1.4200   17.5770 C   0  0  0  0  0  0  0  0  0  0  0  0
    5.7530    0.5050   17.2840 N   0  0  0  0  0  0  0  0  0  0  0  0
    6.3950   -0.0760   18.3180 C   0  0  0  0  0  0  0  0  0  0  0  0
    9.6740    1.0810   23.6330 C   0  0  0  0  0  0  0  0  0  0  0  0
  1  2  1  0
  2  3  1  0
  2  6  1  0
  3  4  2  0
  4  5  1  0
  5  6  2  0
  6  7  1  0
  7  8  1  0
  8  9  1  0
  9 24  1  0
  9 10  2  0
 10 11  1  0
 11 12  2  0
 12 13  1  0
 13 14  1  0
 13 24  2  0
 14 15  1  0
 15 16  2  0
 15 17  1  0
 17 18  1  0
 18 19  2  0
 18 23  1  0
 19 20  1  0
 20 21  2  0
 21 22  1  0
 22 23  2  0
M  END
