WPC1025_minimised.pdb
     RDKit          3D

 24 25  0  0  0  0  0  0  0  0999 V2000
   12.7800    5.7900   23.9270 C   0  0  0  0  0  0  0  0  0  0  0  0
   13.2350    5.4700   22.5630 N   0  0  0  0  0  0  0  0  0  0  0  0
   14.2450    6.3600   21.9710 C   0  0  0  0  0  0  0  0  0  0  0  0
   12.8050    4.3680   21.8430 C   0  0  0  0  0  0  0  0  0  0  0  0
   12.8910    4.3630   20.6330 O   0  0  0  0  0  0  0  0  0  0  0  0
   12.5140    3.0850   22.6140 C   0  0  0  0  0  0  0  0  0  0  0  0
   13.7790    2.1950   22.6680 C   0  0  0  0  0  0  0  0  0  0  0  0
   13.5790    0.7710   23.8110 S   0  0  0  0  0  0  0  0  0  0  0  0
   11.9610    0.1800   23.4120 C   0  0  0  0  0  0  0  0  0  0  0  0
   11.7760   -0.5730   22.2460 C   0  0  0  0  0  0  0  0  0  0  0  0
   10.4780   -0.9090   21.8440 C   0  0  0  0  0  0  0  0  0  0  0  0
    9.3710   -0.4660   22.5860 C   0  0  0  0  0  0  0  0  0  0  0  0
    8.0690   -0.5880   22.0610 N   0  0  0  0  0  0  0  0  0  0  0  0
    7.7160   -0.2230   20.7880 C   0  0  0  0  0  0  0  0  0  0  0  0
    8.5050    0.0440   19.9000 O   0  0  0  0  0  0  0  0  0  0  0  0
    6.3630   -0.1340   20.6240 N   0  0  0  0  0  0  0  0  0  0  0  0
    5.7280    0.4690   19.5150 C   0  0  0  0  0  0  0  0  0  0  0  0
    4.7560    1.4500   19.7430 C   0  0  0  0  0  0  0  0  0  0  0  0
    4.2410    2.1260   18.6300 C   0  0  0  0  0  0  0  0  0  0  0  0
    4.7210    1.8180   17.3490 C   0  0  0  0  0  0  0  0  0  0  0  0
    5.6250    0.8400   17.1160 N   0  0  0  0  0  0  0  0  0  0  0  0
    6.1280    0.1960   18.1880 C   0  0  0  0  0  0  0  0  0  0  0  0
    9.5650    0.2220   23.7930 C   0  0  0  0  0  0  0  0  0  0  0  0
   10.8650    0.5400   24.2120 C   0  0  0  0  0  0  0  0  0  0  0  0
  1  2  1  0
  2  3  1  0
  2  4  1  0
  4  5  2  0
  4  6  1  0
  6  7  1  0
  7  8  1  0
  8  9  1  0
  9 24  2  0
  9 10  1  0
 10 11  2  0
 11 12  1  0
 12 13  1  0
 12 23  2  0
 13 14  1  0
 14 15  2  0
 14 16  1  0
 16 17  1  0
 17 18  2  0
 17 22  1  0
 18 19  1  0
 19 20  2  0
 20 21  1  0
 21 22  2  0
 23 24  1  0
M  END
