WPC1640_minimised.pdb
     RDKit          3D

 21 22  0  0  0  0  0  0  0  0999 V2000
   14.4450    4.6040   23.1170 N   0  0  0  0  0  0  0  0  0  0  0  0
   13.3200    5.1080   22.8510 C   0  0  0  0  0  0  0  0  0  0  0  0
   12.9030    5.0710   21.5630 N   0  0  0  0  0  0  0  0  0  0  0  0
   12.3700    5.5760   23.9220 C   0  0  0  0  0  0  0  0  0  0  0  0
   10.6460    4.9560   23.6090 S   0  0  0  0  0  0  0  0  0  0  0  0
   10.6540    3.1660   23.4330 C   0  0  0  0  0  0  0  0  0  0  0  0
   11.8070    2.3700   23.5570 C   0  0  0  0  0  0  0  0  0  0  0  0
   11.7530    0.9790   23.3830 C   0  0  0  0  0  0  0  0  0  0  0  0
   10.5340    0.3620   23.0700 C   0  0  0  0  0  0  0  0  0  0  0  0
    9.3820    1.1470   22.9310 C   0  0  0  0  0  0  0  0  0  0  0  0
    8.1810    0.5650   22.4900 N   0  0  0  0  0  0  0  0  0  0  0  0
    7.8590    0.4590   21.1690 C   0  0  0  0  0  0  0  0  0  0  0  0
    8.6580    0.6080   20.2660 O   0  0  0  0  0  0  0  0  0  0  0  0
    6.5260    0.2590   20.9510 N   0  0  0  0  0  0  0  0  0  0  0  0
    5.8720    0.6560   19.7620 C   0  0  0  0  0  0  0  0  0  0  0  0
    4.8610    1.6190   19.8580 C   0  0  0  0  0  0  0  0  0  0  0  0
    4.3600    2.1570   18.6690 C   0  0  0  0  0  0  0  0  0  0  0  0
    4.8870    1.7330   17.4420 C   0  0  0  0  0  0  0  0  0  0  0  0
    5.8210    0.7600   17.3340 N   0  0  0  0  0  0  0  0  0  0  0  0
    6.3150    0.2510   18.4840 C   0  0  0  0  0  0  0  0  0  0  0  0
    9.4410    2.5380   23.1140 C   0  0  0  0  0  0  0  0  0  0  0  0
  1  2  2  0
  2  3  1  0
  2  4  1  0
  4  5  1  0
  5  6  1  0
  6 21  2  0
  6  7  1  0
  7  8  2  0
  8  9  1  0
  9 10  2  0
 10 11  1  0
 10 21  1  0
 11 12  1  0
 12 13  2  0
 12 14  1  0
 14 15  1  0
 15 16  2  0
 15 20  1  0
 16 17  1  0
 17 18  2  0
 18 19  1  0
 19 20  2  0
M  END
