WPC1257_minimised.pdb
     RDKit          3D

 19 20  0  0  0  0  0  0  0  0999 V2000
   12.4320    5.7920   23.9980 C   0  0  0  0  0  0  0  0  0  0  0  0
   12.2580    4.4150   23.3370 C   0  0  0  0  0  0  0  0  0  0  0  0
   11.1500    3.3790   24.3730 S   0  0  0  0  0  0  0  0  0  0  0  0
   11.1000    1.8270   23.5080 C   0  0  0  0  0  0  0  0  0  0  0  0
   12.2720    1.1550   23.1200 C   0  0  0  0  0  0  0  0  0  0  0  0
   12.1840   -0.0420   22.3880 C   0  0  0  0  0  0  0  0  0  0  0  0
   10.9240   -0.5710   22.0570 C   0  0  0  0  0  0  0  0  0  0  0  0
    9.7580    0.0950   22.4640 C   0  0  0  0  0  0  0  0  0  0  0  0
    8.4820   -0.3500   22.0690 N   0  0  0  0  0  0  0  0  0  0  0  0
    7.9820   -0.1380   20.8170 C   0  0  0  0  0  0  0  0  0  0  0  0
    8.6650    0.1660   19.8610 O   0  0  0  0  0  0  0  0  0  0  0  0
    6.6170   -0.2080   20.7430 N   0  0  0  0  0  0  0  0  0  0  0  0
    5.8810    0.3410   19.6670 C   0  0  0  0  0  0  0  0  0  0  0  0
    4.9360    1.3410   19.9310 C   0  0  0  0  0  0  0  0  0  0  0  0
    4.3620    2.0010   18.8370 C   0  0  0  0  0  0  0  0  0  0  0  0
    4.7550    1.6560   17.5350 C   0  0  0  0  0  0  0  0  0  0  0  0
    5.6320    0.6620   17.2700 N   0  0  0  0  0  0  0  0  0  0  0  0
    6.1900    0.0330   18.3240 C   0  0  0  0  0  0  0  0  0  0  0  0
    9.8490    1.2890   23.1890 C   0  0  0  0  0  0  0  0  0  0  0  0
  1  2  1  0
  2  3  1  0
  3  4  1  0
  4 19  2  0
  4  5  1  0
  5  6  2  0
  6  7  1  0
  7  8  2  0
  8  9  1  0
  8 19  1  0
  9 10  1  0
 10 11  2  0
 10 12  1  0
 12 13  1  0
 13 14  2  0
 13 18  1  0
 14 15  1  0
 15 16  2  0
 16 17  1  0
 17 18  2  0
M  END
