WPC1266_minimised.pdb
     RDKit          3D

 24 25  0  0  1  0  0  0  0  0999 V2000
   12.3640    6.4640   24.6030 C   0  0  0  0  0  0  0  0  0  0  0  0
   11.5110    5.3760   23.9740 C   0  0  1  0  0  0  0  0  0  0  0  0
   11.8240    4.1280   24.1170 N   0  0  0  0  0  0  0  0  0  0  0  0
   11.8590    3.2570   23.0770 N   0  0  0  0  0  0  0  0  0  0  0  0
   12.5820    2.0210   23.4180 C   0  0  0  0  0  0  0  0  0  0  0  0
   11.9840    0.7930   22.7690 C   0  0  0  0  0  0  0  0  0  0  0  0
   12.8260   -0.2090   22.2600 C   0  0  0  0  0  0  0  0  0  0  0  0
   12.2750   -1.3770   21.7140 C   0  0  0  0  0  0  0  0  0  0  0  0
   10.8820   -1.5350   21.6580 C   0  0  0  0  0  0  0  0  0  0  0  0
   10.0400   -0.5240   22.1370 C   0  0  0  0  0  0  0  0  0  0  0  0
    8.6500   -0.5940   21.9260 N   0  0  0  0  0  0  0  0  0  0  0  0
    8.0760   -0.2830   20.7260 C   0  0  0  0  0  0  0  0  0  0  0  0
    8.7200   -0.0620   19.7210 O   0  0  0  0  0  0  0  0  0  0  0  0
    6.7130   -0.1780   20.7490 N   0  0  0  0  0  0  0  0  0  0  0  0
    5.9550    0.3910   19.6950 C   0  0  0  0  0  0  0  0  0  0  0  0
    5.0400    1.4100   19.9840 C   0  0  0  0  0  0  0  0  0  0  0  0
    4.4380    2.0700   18.9040 C   0  0  0  0  0  0  0  0  0  0  0  0
    4.7870    1.7180   17.5920 C   0  0  0  0  0  0  0  0  0  0  0  0
    5.6270    0.6990   17.3050 N   0  0  0  0  0  0  0  0  0  0  0  0
    6.2020    0.0610   18.3440 C   0  0  0  0  0  0  0  0  0  0  0  0
   10.5890    0.6300   22.7080 C   0  0  0  0  0  0  0  0  0  0  0  0
   10.1070    5.6900   23.5250 C   0  0  0  0  0  0  0  0  0  0  0  0
    9.6650    6.8180   23.4350 O   0  0  0  0  0  0  0  0  0  0  0  0
    9.3210    4.6140   23.3370 O   0  0  0  0  0  0  0  0  0  0  0  0
  2  1  1  1
  2 22  1  0
  2  3  1  0
  3  4  1  0
  4  5  1  0
  5  6  1  0
  6 21  2  0
  6  7  1  0
  7  8  2  0
  8  9  1  0
  9 10  2  0
 10 11  1  0
 10 21  1  0
 11 12  1  0
 12 13  2  0
 12 14  1  0
 14 15  1  0
 15 16  2  0
 15 20  1  0
 16 17  1  0
 17 18  2  0
 18 19  1  0
 19 20  2  0
 22 23  2  0
 22 24  1  0
M  END
