WPC1100_minimised.pdb
     RDKit          3D

 24 25  0  0  0  0  0  0  0  0999 V2000
   10.1260    4.6610   23.5010 C   0  0  0  0  0  0  0  0  0  0  0  0
   11.1960    3.7460   24.0640 C   0  0  0  0  0  0  0  0  0  0  0  0
   10.6980    2.4500   24.6600 C   0  0  0  0  0  0  0  0  0  0  0  0
   10.7040    1.2980   23.6770 C   0  0  0  0  0  0  0  0  0  0  0  0
   11.9140    0.7720   23.1880 C   0  0  0  0  0  0  0  0  0  0  0  0
   11.9010   -0.2990   22.2780 C   0  0  0  0  0  0  0  0  0  0  0  0
   10.6750   -0.8420   21.8570 C   0  0  0  0  0  0  0  0  0  0  0  0
    9.4720   -0.3100   22.3440 C   0  0  0  0  0  0  0  0  0  0  0  0
    8.2240   -0.7330   21.8560 N   0  0  0  0  0  0  0  0  0  0  0  0
    7.7790   -0.4080   20.6080 C   0  0  0  0  0  0  0  0  0  0  0  0
    8.5060   -0.0880   19.6890 O   0  0  0  0  0  0  0  0  0  0  0  0
    6.4150   -0.3850   20.5180 N   0  0  0  0  0  0  0  0  0  0  0  0
    5.7210    0.2750   19.4780 C   0  0  0  0  0  0  0  0  0  0  0  0
    4.7900    1.2700   19.8030 C   0  0  0  0  0  0  0  0  0  0  0  0
    4.2470    2.0220   18.7520 C   0  0  0  0  0  0  0  0  0  0  0  0
    4.6580    1.7670   17.4350 C   0  0  0  0  0  0  0  0  0  0  0  0
    5.5270    0.7830   17.1130 N   0  0  0  0  0  0  0  0  0  0  0  0
    6.0530    0.0650   18.1240 C   0  0  0  0  0  0  0  0  0  0  0  0
    9.4870    0.7500   23.2540 C   0  0  0  0  0  0  0  0  0  0  0  0
   12.4410    4.0520   24.1780 N   0  0  0  0  0  0  0  0  0  0  0  0
   13.0180    5.1670   23.6210 N   0  0  0  0  0  0  0  0  0  0  0  0
   13.2190    6.3670   24.2650 C   0  0  0  0  0  0  0  0  0  0  0  0
   12.7050    6.4730   25.5220 N   0  0  0  0  0  0  0  0  0  0  0  0
   13.9960    7.6300   23.5520 S   0  0  0  0  0  0  0  0  0  0  0  0
  1  2  1  0
  2 20  2  0
  2  3  1  0
  3  4  1  0
  4 19  2  0
  4  5  1  0
  5  6  2  0
  6  7  1  0
  7  8  2  0
  8  9  1  0
  8 19  1  0
  9 10  1  0
 10 11  2  0
 10 12  1  0
 12 13  1  0
 13 14  2  0
 13 18  1  0
 14 15  1  0
 15 16  2  0
 16 17  1  0
 17 18  2  0
 20 21  1  0
 21 22  1  0
 22 23  1  0
 22 24  2  0
M  END
