WPC1914_minimised.pdb
     RDKit          3D

 24 25  0  0  0  0  0  0  0  0999 V2000
    7.5630    5.0360   21.5080 N   0  0  0  0  0  0  0  0  0  0  0  0
    8.5940    4.8510   22.3750 C   0  0  0  0  0  0  0  0  0  0  0  0
    9.3680    6.1580   23.0680 S   0  0  0  0  0  0  0  0  0  0  0  0
    8.9150    3.5230   22.5740 N   0  0  0  0  0  0  0  0  0  0  0  0
    9.9120    3.1310   23.4260 N   0  0  0  0  0  0  0  0  0  0  0  0
   11.1300    3.3290   23.0630 C   0  0  0  0  0  0  0  0  0  0  0  0
   12.2940    2.9980   23.9500 C   0  0  0  0  0  0  0  0  0  0  0  0
   12.2910    1.5280   24.4250 C   0  0  0  0  0  0  0  0  0  0  0  0
   12.2470    0.5480   23.2810 C   0  0  0  0  0  0  0  0  0  0  0  0
   13.4320    0.0640   22.7020 C   0  0  0  0  0  0  0  0  0  0  0  0
   13.3640   -0.8670   21.6560 C   0  0  0  0  0  0  0  0  0  0  0  0
   12.1130   -1.2690   21.1670 C   0  0  0  0  0  0  0  0  0  0  0  0
   10.9320   -0.7540   21.7210 C   0  0  0  0  0  0  0  0  0  0  0  0
    9.6690   -1.0690   21.1790 N   0  0  0  0  0  0  0  0  0  0  0  0
    8.7480   -0.1490   20.7440 C   0  0  0  0  0  0  0  0  0  0  0  0
    8.9300    1.0550   20.7540 O   0  0  0  0  0  0  0  0  0  0  0  0
    7.6160   -0.7230   20.2310 N   0  0  0  0  0  0  0  0  0  0  0  0
    6.6340   -0.0280   19.4820 C   0  0  0  0  0  0  0  0  0  0  0  0
    5.8370    0.9610   20.0740 C   0  0  0  0  0  0  0  0  0  0  0  0
    4.9790    1.6980   19.2420 C   0  0  0  0  0  0  0  0  0  0  0  0
    4.9580    1.4380   17.8630 C   0  0  0  0  0  0  0  0  0  0  0  0
    5.6990    0.4590   17.2950 N   0  0  0  0  0  0  0  0  0  0  0  0
    6.5150   -0.2490   18.0990 C   0  0  0  0  0  0  0  0  0  0  0  0
   11.0040    0.1280   22.7990 C   0  0  0  0  0  0  0  0  0  0  0  0
  1  2  1  0
  2  3  2  0
  2  4  1  0
  4  5  1  0
  5  6  2  0
  6  7  1  0
  7  8  1  0
  8  9  1  0
  9 24  2  0
  9 10  1  0
 10 11  2  0
 11 12  1  0
 12 13  2  0
 13 14  1  0
 13 24  1  0
 14 15  1  0
 15 16  2  0
 15 17  1  0
 17 18  1  0
 18 19  2  0
 18 23  1  0
 19 20  1  0
 20 21  2  0
 21 22  1  0
 22 23  2  0
M  END
