WPC1220_minimised.pdb
     RDKit          3D

 24 26  0  0  0  0  0  0  0  0999 V2000
    8.5620    0.3320   19.8690 O   0  0  0  0  0  0  0  0  0  0  0  0
    7.8520   -0.1050   20.7520 C   0  0  0  0  0  0  0  0  0  0  0  0
    6.5040   -0.2660   20.6030 N   0  0  0  0  0  0  0  0  0  0  0  0
    5.7790    0.2920   19.5280 C   0  0  0  0  0  0  0  0  0  0  0  0
    4.7960    1.2520   19.7980 C   0  0  0  0  0  0  0  0  0  0  0  0
    4.2170    1.9120   18.7080 C   0  0  0  0  0  0  0  0  0  0  0  0
    4.6430    1.6050   17.4080 C   0  0  0  0  0  0  0  0  0  0  0  0
    5.5660    0.6540   17.1370 N   0  0  0  0  0  0  0  0  0  0  0  0
    6.1330    0.0290   18.1880 C   0  0  0  0  0  0  0  0  0  0  0  0
    8.2870   -0.4110   22.0080 N   0  0  0  0  0  0  0  0  0  0  0  0
    9.5180    0.0240   22.5310 C   0  0  0  0  0  0  0  0  0  0  0  0
   10.7340   -0.4260   21.9950 C   0  0  0  0  0  0  0  0  0  0  0  0
   11.9440    0.1060   22.4700 C   0  0  0  0  0  0  0  0  0  0  0  0
   11.9290    1.0850   23.4770 C   0  0  0  0  0  0  0  0  0  0  0  0
   10.7070    1.5340   24.0150 C   0  0  0  0  0  0  0  0  0  0  0  0
   10.6790    2.5920   25.1040 C   0  0  0  0  0  0  0  0  0  0  0  0
   10.5370    4.0460   24.6070 C   0  0  0  0  0  0  0  0  0  0  0  0
   11.5890    4.3740   23.5710 C   0  0  0  0  0  0  0  0  0  0  0  0
   11.2800    4.1650   22.2260 C   0  0  0  0  0  0  0  0  0  0  0  0
   12.2320    4.4120   21.2340 C   0  0  0  0  0  0  0  0  0  0  0  0
   13.5410    4.7610   21.5830 C   0  0  0  0  0  0  0  0  0  0  0  0
   13.8670    4.9220   22.9320 C   0  0  0  0  0  0  0  0  0  0  0  0
   12.8790    4.7960   23.9240 C   0  0  0  0  0  0  0  0  0  0  0  0
    9.5050    0.9930   23.5410 C   0  0  0  0  0  0  0  0  0  0  0  0
  1  2  2  0
  2  3  1  0
  2 10  1  0
  3  4  1  0
  4  5  2  0
  4  9  1  0
  5  6  1  0
  6  7  2  0
  7  8  1  0
  8  9  2  0
 10 11  1  0
 11 24  1  0
 11 12  2  0
 12 13  1  0
 13 14  2  0
 14 15  1  0
 15 16  1  0
 15 24  2  0
 16 17  1  0
 17 18  1  0
 18 19  2  0
 18 23  1  0
 19 20  1  0
 20 21  2  0
 21 22  1  0
 22 23  2  0
M  END
