WPC1921_minimised.pdb
     RDKit          3D

 23 24  0  0  0  0  0  0  0  0999 V2000
    8.2760    5.0630   21.8980 C   0  0  0  0  0  0  0  0  0  0  0  0
    9.1070    5.6590   22.9590 N   0  0  0  0  0  0  0  0  0  0  0  0
   10.3470    5.2390   23.3700 C   0  0  0  0  0  0  0  0  0  0  0  0
   11.1390    6.0390   24.5790 S   0  0  0  0  0  0  0  0  0  0  0  0
   10.8940    4.1980   22.6760 N   0  0  0  0  0  0  0  0  0  0  0  0
   12.2550    3.6880   22.8710 C   0  0  0  0  0  0  0  0  0  0  0  0
   12.3030    2.3710   23.6730 C   0  0  0  0  0  0  0  0  0  0  0  0
   11.7250    1.1550   22.9720 C   0  0  0  0  0  0  0  0  0  0  0  0
   12.5840    0.1620   22.4670 C   0  0  0  0  0  0  0  0  0  0  0  0
   12.0590   -0.9800   21.8440 C   0  0  0  0  0  0  0  0  0  0  0  0
   10.6710   -1.1300   21.7190 C   0  0  0  0  0  0  0  0  0  0  0  0
    9.8120   -0.1400   22.2180 C   0  0  0  0  0  0  0  0  0  0  0  0
    8.4290   -0.2210   21.9670 N   0  0  0  0  0  0  0  0  0  0  0  0
    7.8860    0.0550   20.7460 C   0  0  0  0  0  0  0  0  0  0  0  0
    8.5530    0.3000   19.7610 O   0  0  0  0  0  0  0  0  0  0  0  0
    6.5190    0.0880   20.7200 N   0  0  0  0  0  0  0  0  0  0  0  0
    5.7740    0.5990   19.6300 C   0  0  0  0  0  0  0  0  0  0  0  0
    4.8270    1.6030   19.8620 C   0  0  0  0  0  0  0  0  0  0  0  0
    4.2520    2.2240   18.7460 C   0  0  0  0  0  0  0  0  0  0  0  0
    4.6500    1.8400   17.4570 C   0  0  0  0  0  0  0  0  0  0  0  0
    5.5190    0.8300   17.2240 N   0  0  0  0  0  0  0  0  0  0  0  0
    6.0720    0.2340   18.2990 C   0  0  0  0  0  0  0  0  0  0  0  0
   10.3360    0.9930   22.8550 C   0  0  0  0  0  0  0  0  0  0  0  0
  1  2  1  0
  2  3  1  0
  3  4  2  0
  3  5  1  0
  5  6  1  0
  6  7  1  0
  7  8  1  0
  8 23  2  0
  8  9  1  0
  9 10  2  0
 10 11  1  0
 11 12  2  0
 12 13  1  0
 12 23  1  0
 13 14  1  0
 14 15  2  0
 14 16  1  0
 16 17  1  0
 17 18  2  0
 17 22  1  0
 18 19  1  0
 19 20  2  0
 20 21  1  0
 21 22  2  0
M  END
