WPC1296_minimised.pdb
     RDKit          3D

 21 22  0  0  0  0  0  0  0  0999 V2000
    8.7220    3.8940   22.5410 C   0  0  0  0  0  0  0  0  0  0  0  0
    9.5930    4.5870   23.6100 C   0  0  0  0  0  0  0  0  0  0  0  0
   10.3840    5.7840   23.0520 C   0  0  0  0  0  0  0  0  0  0  0  0
   10.4880    3.6070   24.4130 C   0  0  0  0  0  0  0  0  0  0  0  0
   12.0310    3.0810   23.5330 S   0  0  0  0  0  0  0  0  0  0  0  0
   11.8340    1.3770   23.0380 C   0  0  0  0  0  0  0  0  0  0  0  0
   12.9710    0.5930   22.7800 C   0  0  0  0  0  0  0  0  0  0  0  0
   12.8320   -0.7130   22.2780 C   0  0  0  0  0  0  0  0  0  0  0  0
   11.5510   -1.2390   22.0340 C   0  0  0  0  0  0  0  0  0  0  0  0
   10.4180   -0.4510   22.2740 C   0  0  0  0  0  0  0  0  0  0  0  0
    9.1370   -0.8740   21.8600 N   0  0  0  0  0  0  0  0  0  0  0  0
    8.3980   -0.1750   20.9430 C   0  0  0  0  0  0  0  0  0  0  0  0
    8.8140    0.8140   20.3750 O   0  0  0  0  0  0  0  0  0  0  0  0
    7.1390   -0.6520   20.6980 N   0  0  0  0  0  0  0  0  0  0  0  0
    6.2770   -0.0270   19.7600 C   0  0  0  0  0  0  0  0  0  0  0  0
    5.4410    1.0240   20.1670 C   0  0  0  0  0  0  0  0  0  0  0  0
    4.7560    1.7400   19.1740 C   0  0  0  0  0  0  0  0  0  0  0  0
    4.9360    1.3990   17.8240 C   0  0  0  0  0  0  0  0  0  0  0  0
    5.7200    0.3720   17.4270 N   0  0  0  0  0  0  0  0  0  0  0  0
    6.3920   -0.3020   18.3830 C   0  0  0  0  0  0  0  0  0  0  0  0
   10.5640    0.8390   22.7970 C   0  0  0  0  0  0  0  0  0  0  0  0
  1  2  1  0
  2  3  1  0
  2  4  1  0
  4  5  1  0
  5  6  1  0
  6 21  2  0
  6  7  1  0
  7  8  2  0
  8  9  1  0
  9 10  2  0
 10 11  1  0
 10 21  1  0
 11 12  1  0
 12 13  2  0
 12 14  1  0
 14 15  1  0
 15 16  2  0
 15 20  1  0
 16 17  1  0
 17 18  2  0
 18 19  1  0
 19 20  2  0
M  END
