WPC1150_minimised.pdb
     RDKit          3D

 23 24  0  0  0  0  0  0  0  0999 V2000
   14.3290    6.7230   21.7300 N   0  0  0  0  0  0  0  0  0  0  0  0
   13.6650    5.6790   21.9730 C   0  0  0  0  0  0  0  0  0  0  0  0
   13.4390    4.8770   20.9150 N   0  0  0  0  0  0  0  0  0  0  0  0
   12.6300    5.2890   23.3070 S   0  0  0  0  0  0  0  0  0  0  0  0
   12.3650    3.4650   23.1700 C   0  0  0  0  0  0  0  0  0  0  0  0
   11.3810    2.9940   24.2570 C   0  0  0  0  0  0  0  0  0  0  0  0
   11.5730    1.5090   24.6230 C   0  0  0  0  0  0  0  0  0  0  0  0
   11.1940    0.5530   23.5170 C   0  0  0  0  0  0  0  0  0  0  0  0
   12.1820   -0.1430   22.7980 C   0  0  0  0  0  0  0  0  0  0  0  0
   11.8100   -1.0980   21.8400 C   0  0  0  0  0  0  0  0  0  0  0  0
   10.4500   -1.3220   21.5770 C   0  0  0  0  0  0  0  0  0  0  0  0
    9.4690   -0.5800   22.2470 C   0  0  0  0  0  0  0  0  0  0  0  0
    8.1210   -0.6560   21.8540 N   0  0  0  0  0  0  0  0  0  0  0  0
    7.6960   -0.3040   20.6050 C   0  0  0  0  0  0  0  0  0  0  0  0
    8.4430   -0.1060   19.6670 O   0  0  0  0  0  0  0  0  0  0  0  0
    6.3420   -0.1390   20.5230 N   0  0  0  0  0  0  0  0  0  0  0  0
    5.6830    0.4930   19.4430 C   0  0  0  0  0  0  0  0  0  0  0  0
    4.7460    1.4980   19.7100 C   0  0  0  0  0  0  0  0  0  0  0  0
    4.2300    2.2120   18.6210 C   0  0  0  0  0  0  0  0  0  0  0  0
    4.6830    1.9250   17.3260 C   0  0  0  0  0  0  0  0  0  0  0  0
    5.5500    0.9230   17.0560 N   0  0  0  0  0  0  0  0  0  0  0  0
    6.0390    0.2310   18.1020 C   0  0  0  0  0  0  0  0  0  0  0  0
    9.8380    0.3380   23.2340 C   0  0  0  0  0  0  0  0  0  0  0  0
  1  2  2  0
  2  3  1  0
  2  4  1  0
  4  5  1  0
  5  6  1  0
  6  7  1  0
  7  8  1  0
  8 23  2  0
  8  9  1  0
  9 10  2  0
 10 11  1  0
 11 12  2  0
 12 13  1  0
 12 23  1  0
 13 14  1  0
 14 15  2  0
 14 16  1  0
 16 17  1  0
 17 18  2  0
 17 22  1  0
 18 19  1  0
 19 20  2  0
 20 21  1  0
 21 22  2  0
M  END
