WPC1065_minimised.pdb
     RDKit          3D

 24 25  0  0  0  0  0  0  0  0999 V2000
    8.5730    0.0300   19.8510 O   0  0  0  0  0  0  0  0  0  0  0  0
    7.7900   -0.1960   20.7540 C   0  0  0  0  0  0  0  0  0  0  0  0
    8.1460   -0.5400   22.0290 N   0  0  0  0  0  0  0  0  0  0  0  0
    9.4490   -0.4210   22.5490 C   0  0  0  0  0  0  0  0  0  0  0  0
   10.5490   -0.9540   21.8600 C   0  0  0  0  0  0  0  0  0  0  0  0
   11.8530   -0.6670   22.2840 C   0  0  0  0  0  0  0  0  0  0  0  0
   12.0560    0.1470   23.4100 C   0  0  0  0  0  0  0  0  0  0  0  0
   13.4600    0.5570   23.8100 C   0  0  0  0  0  0  0  0  0  0  0  0
   13.9210    1.6130   22.9700 O   0  0  0  0  0  0  0  0  0  0  0  0
   13.3170    2.8210   22.9900 C   0  0  0  0  0  0  0  0  0  0  0  0
   12.4970    3.2330   23.7880 O   0  0  0  0  0  0  0  0  0  0  0  0
   13.8420    3.5310   21.9590 N   0  0  0  0  0  0  0  0  0  0  0  0
   13.3470    4.8320   21.5140 C   0  0  0  0  0  0  0  0  0  0  0  0
   14.1750    5.9660   22.1250 C   0  0  0  0  0  0  0  0  0  0  0  0
   14.2590    7.0770   21.2410 O   0  0  0  0  0  0  0  0  0  0  0  0
   10.9510    0.6190   24.1420 C   0  0  0  0  0  0  0  0  0  0  0  0
    9.6490    0.3370   23.7090 C   0  0  0  0  0  0  0  0  0  0  0  0
    6.4370   -0.0790   20.6080 N   0  0  0  0  0  0  0  0  0  0  0  0
    5.7900    0.5170   19.5010 C   0  0  0  0  0  0  0  0  0  0  0  0
    4.8180    1.4980   19.7350 C   0  0  0  0  0  0  0  0  0  0  0  0
    4.2860    2.1630   18.6240 C   0  0  0  0  0  0  0  0  0  0  0  0
    4.7460    1.8440   17.3390 C   0  0  0  0  0  0  0  0  0  0  0  0
    5.6470    0.8640   17.1000 N   0  0  0  0  0  0  0  0  0  0  0  0
    6.1680    0.2320   18.1710 C   0  0  0  0  0  0  0  0  0  0  0  0
  1  2  2  0
  2  3  1  0
  2 18  1  0
  3  4  1  0
  4  5  2  0
  4 17  1  0
  5  6  1  0
  6  7  2  0
  7  8  1  0
  7 16  1  0
  8  9  1  0
  9 10  1  0
 10 12  1  0
 10 11  2  0
 12 13  1  0
 13 14  1  0
 14 15  1  0
 16 17  2  0
 18 19  1  0
 19 20  2  0
 19 24  1  0
 20 21  1  0
 21 22  2  0
 22 23  1  0
 23 24  2  0
M  END
