WPC1624_minimised.pdb
     RDKit          3D

 24 26  0  0  0  0  0  0  0  0999 V2000
    9.4690    6.1360   22.9900 C   0  0  0  0  0  0  0  0  0  0  0  0
   10.5660    5.1680   23.3150 C   0  0  0  0  0  0  0  0  0  0  0  0
   10.3900    3.8630   23.6720 C   0  0  0  0  0  0  0  0  0  0  0  0
   11.6550    3.3020   23.7600 N   0  0  0  0  0  0  0  0  0  0  0  0
   11.9280    1.9310   24.2060 C   0  0  0  0  0  0  0  0  0  0  0  0
   11.4800    0.8360   23.2590 C   0  0  0  0  0  0  0  0  0  0  0  0
   12.4350    0.0730   22.5650 C   0  0  0  0  0  0  0  0  0  0  0  0
   12.0270   -0.9950   21.7510 C   0  0  0  0  0  0  0  0  0  0  0  0
   10.6600   -1.2710   21.5990 C   0  0  0  0  0  0  0  0  0  0  0  0
    9.7040   -0.4770   22.2450 C   0  0  0  0  0  0  0  0  0  0  0  0
    8.3350   -0.6030   21.9340 N   0  0  0  0  0  0  0  0  0  0  0  0
    7.8350   -0.3180   20.6930 C   0  0  0  0  0  0  0  0  0  0  0  0
    8.5260   -0.1670   19.7060 O   0  0  0  0  0  0  0  0  0  0  0  0
    6.4770   -0.1530   20.6640 N   0  0  0  0  0  0  0  0  0  0  0  0
    5.7740    0.4420   19.5880 C   0  0  0  0  0  0  0  0  0  0  0  0
    4.8550    1.4640   19.8590 C   0  0  0  0  0  0  0  0  0  0  0  0
    4.2920    2.1400   18.7690 C   0  0  0  0  0  0  0  0  0  0  0  0
    4.6750    1.7950   17.4640 C   0  0  0  0  0  0  0  0  0  0  0  0
    5.5230    0.7780   17.1930 N   0  0  0  0  0  0  0  0  0  0  0  0
    6.0640    0.1270   18.2410 C   0  0  0  0  0  0  0  0  0  0  0  0
   10.1130    0.5460   23.1060 C   0  0  0  0  0  0  0  0  0  0  0  0
   12.6230    4.2490   23.4650 C   0  0  0  0  0  0  0  0  0  0  0  0
   13.8350    4.1600   23.4930 O   0  0  0  0  0  0  0  0  0  0  0  0
   11.9190    5.3870   23.2080 N   0  0  0  0  0  0  0  0  0  0  0  0
  1  2  1  0
  2  3  2  0
  2 24  1  0
  3  4  1  0
  4 22  1  0
  4  5  1  0
  5  6  1  0
  6 21  1  0
  6  7  2  0
  7  8  1  0
  8  9  2  0
  9 10  1  0
 10 11  1  0
 10 21  2  0
 11 12  1  0
 12 13  2  0
 12 14  1  0
 14 15  1  0
 15 16  2  0
 15 20  1  0
 16 17  1  0
 17 18  2  0
 18 19  1  0
 19 20  2  0
 22 24  1  0
 22 23  2  0
M  END
