WPC1137_minimised.pdb
     RDKit          3D

 24 25  0  0  0  0  0  0  0  0999 V2000
   10.6100    3.2110   24.8730 N   0  0  0  0  0  0  0  0  0  0  0  0
   11.5830    2.7020   24.2330 C   0  0  0  0  0  0  0  0  0  0  0  0
   12.0280    1.2750   24.3950 C   0  0  0  0  0  0  0  0  0  0  0  0
   11.4940    0.3600   23.3180 C   0  0  0  0  0  0  0  0  0  0  0  0
   12.3700   -0.4040   22.5290 C   0  0  0  0  0  0  0  0  0  0  0  0
   11.8530   -1.3440   21.6280 C   0  0  0  0  0  0  0  0  0  0  0  0
   10.4640   -1.4820   21.4870 C   0  0  0  0  0  0  0  0  0  0  0  0
    9.5940   -0.6550   22.2060 C   0  0  0  0  0  0  0  0  0  0  0  0
    8.2190   -0.6390   21.9040 N   0  0  0  0  0  0  0  0  0  0  0  0
    7.7360   -0.2840   20.6760 C   0  0  0  0  0  0  0  0  0  0  0  0
    8.4420   -0.1080   19.7020 O   0  0  0  0  0  0  0  0  0  0  0  0
    6.3820   -0.1020   20.6410 N   0  0  0  0  0  0  0  0  0  0  0  0
    5.6870    0.4970   19.5630 C   0  0  0  0  0  0  0  0  0  0  0  0
    4.7610    1.5120   19.8300 C   0  0  0  0  0  0  0  0  0  0  0  0
    4.2070    2.1900   18.7360 C   0  0  0  0  0  0  0  0  0  0  0  0
    4.6090    1.8540   17.4350 C   0  0  0  0  0  0  0  0  0  0  0  0
    5.4620    0.8410   17.1680 N   0  0  0  0  0  0  0  0  0  0  0  0
    5.9920    0.1870   18.2190 C   0  0  0  0  0  0  0  0  0  0  0  0
   10.1060    0.2450   23.1430 C   0  0  0  0  0  0  0  0  0  0  0  0
   12.3940    3.5070   23.4750 N   0  0  0  0  0  0  0  0  0  0  0  0
   12.0900    4.9030   23.0600 C   0  0  0  0  0  0  0  0  0  0  0  0
   12.1060    5.9290   24.2100 C   0  0  0  0  0  0  0  0  0  0  0  0
   12.8030    6.9240   24.2280 O   0  0  0  0  0  0  0  0  0  0  0  0
   11.1100    5.7760   25.0940 O   0  0  0  0  0  0  0  0  0  0  0  0
  1  2  2  0
  2 20  1  0
  2  3  1  0
  3  4  1  0
  4 19  2  0
  4  5  1  0
  5  6  2  0
  6  7  1  0
  7  8  2  0
  8  9  1  0
  8 19  1  0
  9 10  1  0
 10 11  2  0
 10 12  1  0
 12 13  1  0
 13 14  2  0
 13 18  1  0
 14 15  1  0
 15 16  2  0
 16 17  1  0
 17 18  2  0
 20 21  1  0
 21 22  1  0
 22 23  2  0
 22 24  1  0
M  END
