WPC1222_minimised.pdb
     RDKit          3D

 22 23  0  0  0  0  0  0  0  0999 V2000
   12.7230    7.3060   24.8080 O   0  0  0  0  0  0  0  0  0  0  0  0
   12.2500    6.2360   24.4930 C   0  0  0  0  0  0  0  0  0  0  0  0
   10.9830    5.9340   24.7940 O   0  0  0  0  0  0  0  0  0  0  0  0
   12.9190    5.3060   23.5470 C   0  0  0  0  0  0  0  0  0  0  0  0
   12.5620    4.0310   23.2570 C   0  0  0  0  0  0  0  0  0  0  0  0
   11.2910    3.1340   24.0390 S   0  0  0  0  0  0  0  0  0  0  0  0
   11.2270    1.5480   23.2400 C   0  0  0  0  0  0  0  0  0  0  0  0
   12.3780    0.8020   22.9330 C   0  0  0  0  0  0  0  0  0  0  0  0
   12.2530   -0.4330   22.2700 C   0  0  0  0  0  0  0  0  0  0  0  0
   10.9790   -0.9320   21.9440 C   0  0  0  0  0  0  0  0  0  0  0  0
    9.8340   -0.1920   22.2770 C   0  0  0  0  0  0  0  0  0  0  0  0
    8.5460   -0.6100   21.8930 N   0  0  0  0  0  0  0  0  0  0  0  0
    8.0130   -0.3020   20.6750 C   0  0  0  0  0  0  0  0  0  0  0  0
    8.6800    0.0590   19.7280 O   0  0  0  0  0  0  0  0  0  0  0  0
    6.6460   -0.3440   20.6320 N   0  0  0  0  0  0  0  0  0  0  0  0
    5.8940    0.2590   19.5950 C   0  0  0  0  0  0  0  0  0  0  0  0
    4.9640    1.2570   19.9130 C   0  0  0  0  0  0  0  0  0  0  0  0
    4.3760    1.9610   18.8530 C   0  0  0  0  0  0  0  0  0  0  0  0
    4.7440    1.6640   17.5330 C   0  0  0  0  0  0  0  0  0  0  0  0
    5.6080    0.6730   17.2180 N   0  0  0  0  0  0  0  0  0  0  0  0
    6.1760   -0.0020   18.2370 C   0  0  0  0  0  0  0  0  0  0  0  0
    9.9620    1.0440   22.9190 C   0  0  0  0  0  0  0  0  0  0  0  0
  1  2  2  0
  2  3  1  0
  2  4  1  0
  4  5  2  0
  5  6  1  0
  6  7  1  0
  7 22  2  0
  7  8  1  0
  8  9  2  0
  9 10  1  0
 10 11  2  0
 11 12  1  0
 11 22  1  0
 12 13  1  0
 13 14  2  0
 13 15  1  0
 15 16  1  0
 16 17  2  0
 16 21  1  0
 17 18  1  0
 18 19  2  0
 19 20  1  0
 20 21  2  0
M  END
