WPC1015_minimised.pdb
     RDKit          3D

 20 21  0  0  0  0  0  0  0  0999 V2000
   11.6770    2.6450   21.4610 N   0  0  0  0  0  0  0  0  0  0  0  0
   12.8530    3.0360   22.2470 C   0  0  0  0  0  0  0  0  0  0  0  0
   13.8710    1.8770   22.3740 C   0  0  0  0  0  0  0  0  0  0  0  0
   13.4870    0.7620   23.3760 C   0  0  0  0  0  0  0  0  0  0  0  0
   12.0890    0.2130   23.1720 C   0  0  0  0  0  0  0  0  0  0  0  0
   11.8320   -0.6860   22.1250 C   0  0  0  0  0  0  0  0  0  0  0  0
   10.5110   -1.0490   21.8320 C   0  0  0  0  0  0  0  0  0  0  0  0
    9.4470   -0.5000   22.5630 C   0  0  0  0  0  0  0  0  0  0  0  0
    8.1220   -0.6420   22.1050 N   0  0  0  0  0  0  0  0  0  0  0  0
    7.7240   -0.3190   20.8350 C   0  0  0  0  0  0  0  0  0  0  0  0
    8.4830   -0.1220   19.9060 O   0  0  0  0  0  0  0  0  0  0  0  0
    6.3700   -0.1790   20.7140 N   0  0  0  0  0  0  0  0  0  0  0  0
    5.7250    0.4260   19.6090 C   0  0  0  0  0  0  0  0  0  0  0  0
    4.7850    1.4370   19.8440 C   0  0  0  0  0  0  0  0  0  0  0  0
    4.2660    2.1130   18.7320 C   0  0  0  0  0  0  0  0  0  0  0  0
    4.7070    1.7730   17.4450 C   0  0  0  0  0  0  0  0  0  0  0  0
    5.5790    0.7670   17.2070 N   0  0  0  0  0  0  0  0  0  0  0  0
    6.0870    0.1250   18.2780 C   0  0  0  0  0  0  0  0  0  0  0  0
    9.7070    0.3290   23.6620 C   0  0  0  0  0  0  0  0  0  0  0  0
   11.0280    0.6800   23.9710 C   0  0  0  0  0  0  0  0  0  0  0  0
  1  2  1  0
  2  3  1  0
  3  4  1  0
  4  5  1  0
  5 20  2  0
  5  6  1  0
  6  7  2  0
  7  8  1  0
  8  9  1  0
  8 19  2  0
  9 10  1  0
 10 11  2  0
 10 12  1  0
 12 13  1  0
 13 14  2  0
 13 18  1  0
 14 15  1  0
 15 16  2  0
 16 17  1  0
 17 18  2  0
 19 20  1  0
M  END
