WPC1133_minimised.pdb
     RDKit          3D

 20 21  0  0  0  0  0  0  0  0999 V2000
   13.6170    5.6180   22.2980 N   0  0  0  0  0  0  0  0  0  0  0  0
   12.8090    4.8080   22.4390 C   0  0  0  0  0  0  0  0  0  0  0  0
   11.8060    3.7470   22.5750 C   0  0  0  0  0  0  0  0  0  0  0  0
   12.2940    2.5580   23.4330 C   0  0  0  0  0  0  0  0  0  0  0  0
   11.7570    1.2080   22.9810 C   0  0  0  0  0  0  0  0  0  0  0  0
   12.6500    0.1600   22.6900 C   0  0  0  0  0  0  0  0  0  0  0  0
   12.1680   -1.0850   22.2540 C   0  0  0  0  0  0  0  0  0  0  0  0
   10.7890   -1.2870   22.0980 C   0  0  0  0  0  0  0  0  0  0  0  0
    9.8980   -0.2420   22.3760 C   0  0  0  0  0  0  0  0  0  0  0  0
    8.5280   -0.3910   22.0880 N   0  0  0  0  0  0  0  0  0  0  0  0
    7.9870   -0.0440   20.8830 C   0  0  0  0  0  0  0  0  0  0  0  0
    8.6540    0.3380   19.9440 O   0  0  0  0  0  0  0  0  0  0  0  0
    6.6220   -0.1220   20.8230 N   0  0  0  0  0  0  0  0  0  0  0  0
    5.8640    0.3870   19.7410 C   0  0  0  0  0  0  0  0  0  0  0  0
    4.8860    1.3590   19.9860 C   0  0  0  0  0  0  0  0  0  0  0  0
    4.2910    1.9760   18.8780 C   0  0  0  0  0  0  0  0  0  0  0  0
    4.6900    1.6110   17.5840 C   0  0  0  0  0  0  0  0  0  0  0  0
    5.5910    0.6340   17.3360 N   0  0  0  0  0  0  0  0  0  0  0  0
    6.1750    0.0530   18.4040 C   0  0  0  0  0  0  0  0  0  0  0  0
   10.3770    0.9990   22.8210 C   0  0  0  0  0  0  0  0  0  0  0  0
  1  2  3  0
  2  3  1  0
  3  4  1  0
  4  5  1  0
  5 20  2  0
  5  6  1  0
  6  7  2  0
  7  8  1  0
  8  9  2  0
  9 10  1  0
  9 20  1  0
 10 11  1  0
 11 12  2  0
 11 13  1  0
 13 14  1  0
 14 15  2  0
 14 19  1  0
 15 16  1  0
 16 17  2  0
 17 18  1  0
 18 19  2  0
M  END
