WPC1778_minimised.pdb
     RDKit          3D

 24 26  0  0  0  0  0  0  0  0999 V2000
    8.6060   -0.1000   19.5990 O   0  0  0  0  0  0  0  0  0  0  0  0
    7.9750   -0.2960   20.6160 C   0  0  0  0  0  0  0  0  0  0  0  0
    6.6120   -0.1800   20.6600 N   0  0  0  0  0  0  0  0  0  0  0  0
    5.8430    0.3960   19.6180 C   0  0  0  0  0  0  0  0  0  0  0  0
    4.9280    1.4110   19.9240 C   0  0  0  0  0  0  0  0  0  0  0  0
    4.3190    2.0810   18.8560 C   0  0  0  0  0  0  0  0  0  0  0  0
    4.6550    1.7390   17.5380 C   0  0  0  0  0  0  0  0  0  0  0  0
    5.4930    0.7230   17.2350 N   0  0  0  0  0  0  0  0  0  0  0  0
    6.0770    0.0760   18.2620 C   0  0  0  0  0  0  0  0  0  0  0  0
    8.5570   -0.5920   21.8150 N   0  0  0  0  0  0  0  0  0  0  0  0
    9.9460   -0.5150   22.0400 C   0  0  0  0  0  0  0  0  0  0  0  0
   10.8110   -1.4600   21.4850 C   0  0  0  0  0  0  0  0  0  0  0  0
   12.2000   -1.3040   21.6140 C   0  0  0  0  0  0  0  0  0  0  0  0
   12.7170   -0.2260   22.3460 C   0  0  0  0  0  0  0  0  0  0  0  0
   11.8500    0.6980   22.9570 C   0  0  0  0  0  0  0  0  0  0  0  0
   12.4230    1.7140   23.9340 C   0  0  0  0  0  0  0  0  0  0  0  0
   11.9460    3.1650   23.8240 C   0  0  0  0  0  0  0  0  0  0  0  0
   10.6390    3.4950   24.2340 C   0  0  0  0  0  0  0  0  0  0  0  0
   10.1790    4.8160   24.1750 C   0  0  0  0  0  0  0  0  0  0  0  0
   11.0550    5.8480   23.8330 C   0  0  0  0  0  0  0  0  0  0  0  0
   12.3880    5.5480   23.5220 C   0  0  0  0  0  0  0  0  0  0  0  0
   12.8200    4.2200   23.4730 C   0  0  0  0  0  0  0  0  0  0  0  0
   14.1220    4.0110   23.1460 O   0  0  0  0  0  0  0  0  0  0  0  0
   10.4620    0.5540   22.7760 C   0  0  0  0  0  0  0  0  0  0  0  0
  1  2  2  0
  2  3  1  0
  2 10  1  0
  3  4  1  0
  4  5  2  0
  4  9  1  0
  5  6  1  0
  6  7  2  0
  7  8  1  0
  8  9  2  0
 10 11  1  0
 11 24  1  0
 11 12  2  0
 12 13  1  0
 13 14  2  0
 14 15  1  0
 15 16  1  0
 15 24  2  0
 16 17  1  0
 17 18  2  0
 17 22  1  0
 18 19  1  0
 19 20  2  0
 20 21  1  0
 21 22  2  0
 22 23  1  0
M  END
