WPC1391_minimised.pdb
     RDKit          3D

 24 26  0  0  1  0  0  0  0  0999 V2000
    8.6420   -0.0070   19.7720 O   0  0  0  0  0  0  0  0  0  0  0  0
    7.9720   -0.1080   20.7810 C   0  0  0  0  0  0  0  0  0  0  0  0
    6.6090    0.0050   20.7670 N   0  0  0  0  0  0  0  0  0  0  0  0
    5.8670    0.5100   19.6710 C   0  0  0  0  0  0  0  0  0  0  0  0
    4.9140    1.5090   19.9060 C   0  0  0  0  0  0  0  0  0  0  0  0
    4.3180    2.1150   18.7930 C   0  0  0  0  0  0  0  0  0  0  0  0
    4.7050    1.7280   17.5020 C   0  0  0  0  0  0  0  0  0  0  0  0
    5.5780    0.7230   17.2650 N   0  0  0  0  0  0  0  0  0  0  0  0
    6.1510    0.1390   18.3370 C   0  0  0  0  0  0  0  0  0  0  0  0
    8.5070   -0.2930   22.0260 N   0  0  0  0  0  0  0  0  0  0  0  0
    9.8870   -0.2080   22.3040 C   0  0  0  0  0  0  0  0  0  0  0  0
   10.8040   -0.9990   21.5970 C   0  0  0  0  0  0  0  0  0  0  0  0
   12.1830   -0.8150   21.7700 C   0  0  0  0  0  0  0  0  0  0  0  0
   12.6440    0.1450   22.6820 C   0  0  0  0  0  0  0  0  0  0  0  0
   11.7280    0.9000   23.4370 C   0  0  0  0  0  0  0  0  0  0  0  0
   12.2290    1.8030   24.5450 C   0  0  0  0  0  0  0  0  0  0  0  0
   12.2010    3.2550   24.2910 N   0  0  0  0  0  0  0  0  0  0  0  0
   10.8700    3.8910   24.3330 C   0  0  0  0  0  0  0  0  0  0  0  0
   11.0100    5.4120   24.6050 C   0  0  0  0  0  0  0  0  0  0  0  0
   12.3930    5.9750   24.1940 C   0  0  0  0  0  0  0  0  0  0  0  0
   12.8920    5.2650   22.9180 C   0  0  1  0  0  0  0  0  0  0  0  0
   14.0950    5.8840   22.4570 O   0  0  0  0  0  0  0  0  0  0  0  0
   13.0630    3.7410   23.1820 C   0  0  0  0  0  0  0  0  0  0  0  0
   10.3490    0.7230   23.2410 C   0  0  0  0  0  0  0  0  0  0  0  0
  1  2  2  0
  2 10  1  0
  2  3  1  0
  3  4  1  0
  4  5  2  0
  4  9  1  0
  5  6  1  0
  6  7  2  0
  7  8  1  0
  8  9  2  0
 10 11  1  0
 11 12  2  0
 11 24  1  0
 12 13  1  0
 13 14  2  0
 14 15  1  0
 15 16  1  0
 15 24  2  0
 16 17  1  0
 17 18  1  0
 17 23  1  0
 18 19  1  0
 19 20  1  0
 20 21  1  0
 21 22  1  1
 21 23  1  0
M  END
