WPC1070_minimised.pdb
     RDKit          3D

 23 25  0  0  0  0  0  0  0  0999 V2000
    8.4130   -0.3080   19.6100 O   0  0  0  0  0  0  0  0  0  0  0  0
    7.6360   -0.5450   20.5140 C   0  0  0  0  0  0  0  0  0  0  0  0
    6.2830   -0.3880   20.3990 N   0  0  0  0  0  0  0  0  0  0  0  0
    5.6550    0.3240   19.3530 C   0  0  0  0  0  0  0  0  0  0  0  0
    4.7300    1.3270   19.6710 C   0  0  0  0  0  0  0  0  0  0  0  0
    4.2270    2.1050   18.6210 C   0  0  0  0  0  0  0  0  0  0  0  0
    4.6750    1.8740   17.3120 C   0  0  0  0  0  0  0  0  0  0  0  0
    5.5440    0.8870   16.9960 N   0  0  0  0  0  0  0  0  0  0  0  0
    6.0260    0.1390   18.0060 C   0  0  0  0  0  0  0  0  0  0  0  0
    8.0040   -0.9080   21.7750 N   0  0  0  0  0  0  0  0  0  0  0  0
    9.2520   -0.5570   22.3150 C   0  0  0  0  0  0  0  0  0  0  0  0
   10.4500   -1.0980   21.8260 C   0  0  0  0  0  0  0  0  0  0  0  0
   11.6800   -0.5960   22.2810 C   0  0  0  0  0  0  0  0  0  0  0  0
   11.7030    0.4430   23.2280 C   0  0  0  0  0  0  0  0  0  0  0  0
   10.4970    0.9710   23.7250 C   0  0  0  0  0  0  0  0  0  0  0  0
   10.4740    2.1000   24.7310 C   0  0  0  0  0  0  0  0  0  0  0  0
   10.0450    3.7110   23.9510 S   0  0  0  0  0  0  0  0  0  0  0  0
   11.6360    4.2600   23.4780 C   0  0  0  0  0  0  0  0  0  0  0  0
   11.9230    5.5750   23.6620 C   0  0  0  0  0  0  0  0  0  0  0  0
   13.2760    5.6210   23.4060 N   0  0  0  0  0  0  0  0  0  0  0  0
   13.7670    4.3860   23.1360 N   0  0  0  0  0  0  0  0  0  0  0  0
   12.7720    3.5510   23.2160 N   0  0  0  0  0  0  0  0  0  0  0  0
    9.2760    0.4630   23.2680 C   0  0  0  0  0  0  0  0  0  0  0  0
  1  2  2  0
  2  3  1  0
  2 10  1  0
  3  4  1  0
  4  5  2  0
  4  9  1  0
  5  6  1  0
  6  7  2  0
  7  8  1  0
  8  9  2  0
 10 11  1  0
 11 23  1  0
 11 12  2  0
 12 13  1  0
 13 14  2  0
 14 15  1  0
 15 16  1  0
 15 23  2  0
 16 17  1  0
 17 18  1  0
 18 19  2  0
 18 22  1  0
 19 20  1  0
 20 21  1  0
 21 22  2  0
M  END
