WPC1007_minimised.pdb
     RDKit          3D

 24 25  0  0  0  0  0  0  0  0999 V2000
    8.5580    0.0130   19.8130 O   0  0  0  0  0  0  0  0  0  0  0  0
    7.8050   -0.2370   20.7350 C   0  0  0  0  0  0  0  0  0  0  0  0
    8.2110   -0.5420   22.0050 N   0  0  0  0  0  0  0  0  0  0  0  0
    9.5150   -0.3170   22.4860 C   0  0  0  0  0  0  0  0  0  0  0  0
   10.6310   -0.7980   21.7850 C   0  0  0  0  0  0  0  0  0  0  0  0
   11.9240   -0.4010   22.1560 C   0  0  0  0  0  0  0  0  0  0  0  0
   12.0970    0.4740   23.2390 C   0  0  0  0  0  0  0  0  0  0  0  0
   13.4780    0.9620   23.6180 C   0  0  0  0  0  0  0  0  0  0  0  0
   13.9520    2.1240   22.8560 N   0  0  0  0  0  0  0  0  0  0  0  0
   13.4250    3.3860   22.8190 C   0  0  0  0  0  0  0  0  0  0  0  0
   13.9700    4.2780   22.1990 O   0  0  0  0  0  0  0  0  0  0  0  0
   12.3440    3.5440   23.6290 O   0  0  0  0  0  0  0  0  0  0  0  0
   11.6700    4.8210   23.6200 C   0  0  0  0  0  0  0  0  0  0  0  0
   12.5370    5.8660   24.3630 C   0  0  0  0  0  0  0  0  0  0  0  0
   11.8140    6.4440   25.4490 O   0  0  0  0  0  0  0  0  0  0  0  0
   10.9820    0.8850   23.9940 C   0  0  0  0  0  0  0  0  0  0  0  0
    9.6920    0.4960   23.6120 C   0  0  0  0  0  0  0  0  0  0  0  0
    6.4450   -0.1760   20.6140 N   0  0  0  0  0  0  0  0  0  0  0  0
    5.7690    0.4210   19.5250 C   0  0  0  0  0  0  0  0  0  0  0  0
    4.8090    1.4070   19.7830 C   0  0  0  0  0  0  0  0  0  0  0  0
    4.2630    2.0870   18.6870 C   0  0  0  0  0  0  0  0  0  0  0  0
    4.7010    1.7770   17.3920 C   0  0  0  0  0  0  0  0  0  0  0  0
    5.5920    0.7930   17.1310 N   0  0  0  0  0  0  0  0  0  0  0  0
    6.1230    0.1450   18.1870 C   0  0  0  0  0  0  0  0  0  0  0  0
  1  2  2  0
  2  3  1  0
  2 18  1  0
  3  4  1  0
  4  5  2  0
  4 17  1  0
  5  6  1  0
  6  7  2  0
  7  8  1  0
  7 16  1  0
  8  9  1  0
  9 10  1  0
 10 12  1  0
 10 11  2  0
 12 13  1  0
 13 14  1  0
 14 15  1  0
 16 17  2  0
 18 19  1  0
 19 20  2  0
 19 24  1  0
 20 21  1  0
 21 22  2  0
 22 23  1  0
 23 24  2  0
M  END
