WPC1217_minimised.pdb
     RDKit          3D

 23 24  0  0  0  0  0  0  0  0999 V2000
   10.6400    6.1960   24.3450 O   0  0  0  0  0  0  0  0  0  0  0  0
   11.8270    6.0670   24.1300 C   0  0  0  0  0  0  0  0  0  0  0  0
   12.7310    6.8160   24.7820 O   0  0  0  0  0  0  0  0  0  0  0  0
   12.3710    5.2230   22.9820 C   0  0  0  0  0  0  0  0  0  0  0  0
   12.5440    3.7220   23.3040 C   0  0  0  0  0  0  0  0  0  0  0  0
   11.4350    3.1380   24.2140 C   0  0  0  0  0  0  0  0  0  0  0  0
   11.6750    1.6590   24.5790 C   0  0  0  0  0  0  0  0  0  0  0  0
   11.3120    0.6880   23.4810 C   0  0  0  0  0  0  0  0  0  0  0  0
   12.3070    0.0010   22.7650 C   0  0  0  0  0  0  0  0  0  0  0  0
   11.9440   -0.9790   21.8280 C   0  0  0  0  0  0  0  0  0  0  0  0
   10.5860   -1.2390   21.5870 C   0  0  0  0  0  0  0  0  0  0  0  0
    9.5970   -0.5010   22.2490 C   0  0  0  0  0  0  0  0  0  0  0  0
    8.2450   -0.6200   21.8760 N   0  0  0  0  0  0  0  0  0  0  0  0
    7.7820   -0.2710   20.6390 C   0  0  0  0  0  0  0  0  0  0  0  0
    8.4980   -0.0240   19.6890 O   0  0  0  0  0  0  0  0  0  0  0  0
    6.4210   -0.1600   20.5800 N   0  0  0  0  0  0  0  0  0  0  0  0
    5.7250    0.4530   19.5120 C   0  0  0  0  0  0  0  0  0  0  0  0
    4.7940    1.4600   19.7900 C   0  0  0  0  0  0  0  0  0  0  0  0
    4.2440    2.1550   18.7050 C   0  0  0  0  0  0  0  0  0  0  0  0
    4.6550    1.8420   17.4010 C   0  0  0  0  0  0  0  0  0  0  0  0
    5.5190    0.8400   17.1230 N   0  0  0  0  0  0  0  0  0  0  0  0
    6.0460    0.1710   18.1660 C   0  0  0  0  0  0  0  0  0  0  0  0
    9.9580    0.4440   23.2120 C   0  0  0  0  0  0  0  0  0  0  0  0
  1  2  2  0
  2  3  1  0
  2  4  1  0
  4  5  1  0
  5  6  1  0
  6  7  1  0
  7  8  1  0
  8 23  2  0
  8  9  1  0
  9 10  2  0
 10 11  1  0
 11 12  2  0
 12 13  1  0
 12 23  1  0
 13 14  1  0
 14 15  2  0
 14 16  1  0
 16 17  1  0
 17 18  2  0
 17 22  1  0
 18 19  1  0
 19 20  2  0
 20 21  1  0
 21 22  2  0
M  END
