WPC1293_minimised.pdb
     RDKit          3D

 24 26  0  0  1  0  0  0  0  0999 V2000
   13.0080    5.0630   21.3400 N   0  0  0  0  0  0  0  0  0  0  0  0
   12.3830    5.0540   22.5260 C   0  0  1  0  0  0  0  0  0  0  0  0
   11.1560    5.3610   22.6360 N   0  0  0  0  0  0  0  0  0  0  0  0
   10.5160    4.7900   23.7210 C   0  0  0  0  0  0  0  0  0  0  0  0
    9.3530    4.9690   24.0170 O   0  0  0  0  0  0  0  0  0  0  0  0
   11.4840    3.9570   24.5610 C   0  0  1  0  0  0  0  0  0  0  0  0
   10.9770    2.5420   24.9320 C   0  0  0  0  0  0  0  0  0  0  0  0
   10.8320    1.5480   23.7910 C   0  0  0  0  0  0  0  0  0  0  0  0
   11.9460    0.8420   23.2970 C   0  0  0  0  0  0  0  0  0  0  0  0
   11.7820   -0.1450   22.3110 C   0  0  0  0  0  0  0  0  0  0  0  0
   10.4980   -0.4450   21.8320 C   0  0  0  0  0  0  0  0  0  0  0  0
    9.3850    0.2480   22.3330 C   0  0  0  0  0  0  0  0  0  0  0  0
    8.0860   -0.0120   21.8590 N   0  0  0  0  0  0  0  0  0  0  0  0
    7.7020    0.1050   20.5570 C   0  0  0  0  0  0  0  0  0  0  0  0
    8.4710    0.1990   19.6210 O   0  0  0  0  0  0  0  0  0  0  0  0
    6.3460    0.1790   20.4190 N   0  0  0  0  0  0  0  0  0  0  0  0
    5.6840    0.7280   19.3000 C   0  0  0  0  0  0  0  0  0  0  0  0
    4.6970    1.6970   19.5150 C   0  0  0  0  0  0  0  0  0  0  0  0
    4.1730    2.3510   18.3940 C   0  0  0  0  0  0  0  0  0  0  0  0
    4.6700    2.0460   17.1210 C   0  0  0  0  0  0  0  0  0  0  0  0
    5.5860    1.0760   16.8990 N   0  0  0  0  0  0  0  0  0  0  0  0
    6.0810    0.4380   17.9780 C   0  0  0  0  0  0  0  0  0  0  0  0
    9.5530    1.2450   23.3020 C   0  0  0  0  0  0  0  0  0  0  0  0
   13.0550    3.9360   23.6130 S   0  0  0  0  0  0  0  0  0  0  0  0
  2  1  1  6
  2  3  1  0
  2 24  1  0
  3  4  1  0
  4  5  2  0
  4  6  1  0
  6 24  1  0
  6  7  1  6
  7  8  1  0
  8 23  1  0
  8  9  2  0
  9 10  1  0
 10 11  2  0
 11 12  1  0
 12 13  1  0
 12 23  2  0
 13 14  1  0
 14 15  2  0
 14 16  1  0
 16 17  1  0
 17 18  2  0
 17 22  1  0
 18 19  1  0
 19 20  2  0
 20 21  1  0
 21 22  2  0
M  END
