WPC1890_minimised.pdb
     RDKit          3D

 22 23  0  0  0  0  0  0  0  0999 V2000
   12.8010    5.0390   24.0560 O   0  0  0  0  0  0  0  0  0  0  0  0
   12.2130    4.7980   23.0220 C   0  0  0  0  0  0  0  0  0  0  0  0
   12.6570    5.1490   21.8190 O   0  0  0  0  0  0  0  0  0  0  0  0
   10.9940    4.1870   22.9510 N   0  0  0  0  0  0  0  0  0  0  0  0
   10.2390    3.7480   24.1220 C   0  0  0  0  0  0  0  0  0  0  0  0
   10.7650    2.4070   24.6610 C   0  0  0  0  0  0  0  0  0  0  0  0
   10.7130    1.2690   23.6630 C   0  0  0  0  0  0  0  0  0  0  0  0
   11.8940    0.7110   23.1390 C   0  0  0  0  0  0  0  0  0  0  0  0
   11.8270   -0.3470   22.2170 C   0  0  0  0  0  0  0  0  0  0  0  0
   10.5750   -0.8360   21.8090 C   0  0  0  0  0  0  0  0  0  0  0  0
    9.4010   -0.2680   22.3240 C   0  0  0  0  0  0  0  0  0  0  0  0
    8.1360   -0.6170   21.8240 N   0  0  0  0  0  0  0  0  0  0  0  0
    7.7340   -0.2820   20.5640 C   0  0  0  0  0  0  0  0  0  0  0  0
    8.4940    0.0100   19.6620 O   0  0  0  0  0  0  0  0  0  0  0  0
    6.3750   -0.2170   20.4390 N   0  0  0  0  0  0  0  0  0  0  0  0
    5.7150    0.4390   19.3760 C   0  0  0  0  0  0  0  0  0  0  0  0
    4.7670    1.4290   19.6670 C   0  0  0  0  0  0  0  0  0  0  0  0
    4.2510    2.1690   18.5950 C   0  0  0  0  0  0  0  0  0  0  0  0
    4.7110    1.9190   17.2950 C   0  0  0  0  0  0  0  0  0  0  0  0
    5.5970    0.9390   17.0040 N   0  0  0  0  0  0  0  0  0  0  0  0
    6.0880    0.2240   18.0340 C   0  0  0  0  0  0  0  0  0  0  0  0
    9.4700    0.7680   23.2590 C   0  0  0  0  0  0  0  0  0  0  0  0
  1  2  2  0
  2  3  1  0
  2  4  1  0
  4  5  1  0
  5  6  1  0
  6  7  1  0
  7 22  2  0
  7  8  1  0
  8  9  2  0
  9 10  1  0
 10 11  2  0
 11 12  1  0
 11 22  1  0
 12 13  1  0
 13 14  2  0
 13 15  1  0
 15 16  1  0
 16 17  2  0
 16 21  1  0
 17 18  1  0
 18 19  2  0
 19 20  1  0
 20 21  2  0
M  END
