WPC1711_minimised.pdb
     RDKit          3D

 24 26  0  0  0  0  0  0  0  0999 V2000
   10.6360    2.9720   21.7100 C   0  0  0  0  0  0  0  0  0  0  0  0
   11.5870    3.7560   22.4950 N   0  0  0  0  0  0  0  0  0  0  0  0
   12.6340    4.4330   21.9610 N   0  0  0  0  0  0  0  0  0  0  0  0
   13.2400    5.0030   22.9720 N   0  0  0  0  0  0  0  0  0  0  0  0
   12.6370    4.7290   24.1750 N   0  0  0  0  0  0  0  0  0  0  0  0
   11.6070    4.0010   23.8330 C   0  0  0  0  0  0  0  0  0  0  0  0
   10.5340    3.1730   24.9480 S   0  0  0  0  0  0  0  0  0  0  0  0
   11.3960    1.5620   25.1900 C   0  0  0  0  0  0  0  0  0  0  0  0
   11.2510    0.6200   24.0250 C   0  0  0  0  0  0  0  0  0  0  0  0
   12.3790    0.2270   23.2810 C   0  0  0  0  0  0  0  0  0  0  0  0
   12.2270   -0.6390   22.1860 C   0  0  0  0  0  0  0  0  0  0  0  0
   10.9430   -1.0620   21.8130 C   0  0  0  0  0  0  0  0  0  0  0  0
    9.8190   -0.6330   22.5320 C   0  0  0  0  0  0  0  0  0  0  0  0
    8.5250   -0.8650   22.0360 N   0  0  0  0  0  0  0  0  0  0  0  0
    8.0420   -0.2650   20.9060 C   0  0  0  0  0  0  0  0  0  0  0  0
    8.7200    0.4080   20.1530 O   0  0  0  0  0  0  0  0  0  0  0  0
    6.7020   -0.4550   20.7210 N   0  0  0  0  0  0  0  0  0  0  0  0
    5.9600    0.1400   19.6760 C   0  0  0  0  0  0  0  0  0  0  0  0
    4.9530    1.0630   19.9820 C   0  0  0  0  0  0  0  0  0  0  0  0
    4.3250    1.7170   18.9140 C   0  0  0  0  0  0  0  0  0  0  0  0
    4.7220    1.4330   17.5980 C   0  0  0  0  0  0  0  0  0  0  0  0
    5.6720    0.5200   17.2950 N   0  0  0  0  0  0  0  0  0  0  0  0
    6.2910   -0.0910   18.3250 C   0  0  0  0  0  0  0  0  0  0  0  0
    9.9740    0.1760   23.6600 C   0  0  0  0  0  0  0  0  0  0  0  0
  1  2  1  0
  2  3  1  0
  2  6  1  0
  3  4  2  0
  4  5  1  0
  5  6  2  0
  6  7  1  0
  7  8  1  0
  8  9  1  0
  9 24  1  0
  9 10  2  0
 10 11  1  0
 11 12  2  0
 12 13  1  0
 13 14  1  0
 13 24  2  0
 14 15  1  0
 15 16  2  0
 15 17  1  0
 17 18  1  0
 18 19  2  0
 18 23  1  0
 19 20  1  0
 20 21  2  0
 21 22  1  0
 22 23  2  0
M  END
