WPC1941_minimised.pdb
     RDKit          3D

 21 22  0  0  1  0  0  0  0  0999 V2000
    8.9860    0.4680   20.6200 O   0  0  0  0  0  0  0  0  0  0  0  0
    8.7000   -0.4780   21.1200 C   0  0  0  0  0  0  0  0  0  0  0  0
    7.3570   -0.7190   20.9070 N   0  0  0  0  0  0  0  0  0  0  0  0
    6.5850   -0.0680   19.8530 C   0  0  0  0  0  0  0  0  0  0  0  0
    5.4540    0.7480   20.1900 C   0  0  0  0  0  0  0  0  0  0  0  0
    4.8200    1.5230   19.1420 C   0  0  0  0  0  0  0  0  0  0  0  0
    5.3010    1.3840   17.7950 C   0  0  0  0  0  0  0  0  0  0  0  0
    6.3870    0.6200   17.4440 N   0  0  0  0  0  0  0  0  0  0  0  0
    6.9410   -0.0990   18.4840 C   0  0  0  0  0  0  0  0  0  0  0  0
    9.4000   -1.2770   21.9820 N   0  0  0  0  0  0  0  0  0  0  0  0
   10.6400   -0.7490   22.4560 C   0  0  0  0  0  0  0  0  0  0  0  0
   11.8270   -1.4460   21.9190 C   0  0  0  0  0  0  0  0  0  0  0  0
   12.9800   -0.5630   21.8210 C   0  0  0  0  0  0  0  0  0  0  0  0
   13.0400    0.4630   22.8080 C   0  0  0  0  0  0  0  0  0  0  0  0
   11.8540    0.8930   23.4610 C   0  0  0  0  0  0  0  0  0  0  0  0
   11.7900    2.2310   24.3480 C   0  0  0  0  0  0  0  0  0  0  0  0
   11.5450    3.6970   22.9680 P   0  0  0  0  0  0  0  0  0  0  0  0
   12.4200    4.9290   22.9820 O   0  0  0  0  0  0  0  0  0  0  0  0
   12.0000    4.8300   24.0190 O   0  0  0  0  0  0  0  0  0  0  0  0
    9.9400    4.0290   22.5820 O   0  0  0  0  0  0  0  0  0  0  0  0
   10.6560    0.2860   23.2760 C   0  0  0  0  0  0  0  0  0  0  0  0
  1  2  2  0
  2 10  1  0
  2  3  1  0
  3  4  1  0
  4  5  2  0
  4  9  1  0
  5  6  1  0
  6  7  2  0
  7  8  1  0
  8  9  2  0
 11 10  1  0
 11 12  1  0
 11 21  1  0
 12 13  1  0
 13 14  1  0
 14 15  1  0
 15 16  1  0
 15 21  2  0
 16 17  1  0
 17 18  2  0
 17 19  1  0
 17 20  1  0
M  END
