WPC1174_minimised.pdb
     RDKit          3D

 21 22  0  0  0  0  0  0  0  0999 V2000
    8.6680    0.1180   19.8070 O   0  0  0  0  0  0  0  0  0  0  0  0
    7.9550   -0.2180   20.7310 C   0  0  0  0  0  0  0  0  0  0  0  0
    6.5920   -0.2570   20.6310 N   0  0  0  0  0  0  0  0  0  0  0  0
    5.8770    0.3420   19.5680 C   0  0  0  0  0  0  0  0  0  0  0  0
    4.9260    1.3290   19.8570 C   0  0  0  0  0  0  0  0  0  0  0  0
    4.3620    2.0250   18.7800 C   0  0  0  0  0  0  0  0  0  0  0  0
    4.7750    1.7300   17.4720 C   0  0  0  0  0  0  0  0  0  0  0  0
    5.6600    0.7490   17.1840 N   0  0  0  0  0  0  0  0  0  0  0  0
    6.2060    0.0840   18.2210 C   0  0  0  0  0  0  0  0  0  0  0  0
    8.4170   -0.5060   21.9820 N   0  0  0  0  0  0  0  0  0  0  0  0
    9.6850   -0.1060   22.4400 C   0  0  0  0  0  0  0  0  0  0  0  0
   10.8600   -0.7170   21.9770 C   0  0  0  0  0  0  0  0  0  0  0  0
   12.1120   -0.2270   22.3860 C   0  0  0  0  0  0  0  0  0  0  0  0
   12.1830    0.8750   23.2560 C   0  0  0  0  0  0  0  0  0  0  0  0
   11.0010    1.4930   23.7000 C   0  0  0  0  0  0  0  0  0  0  0  0
   11.0310    2.9160   24.7610 S   0  0  0  0  0  0  0  0  0  0  0  0
   11.4130    4.3220   23.6430 C   0  0  0  0  0  0  0  0  0  0  0  0
   12.8110    4.1730   23.0080 C   0  0  0  0  0  0  0  0  0  0  0  0
   13.3250    5.5010   22.4500 C   0  0  0  0  0  0  0  0  0  0  0  0
   14.7400    5.5210   22.3800 O   0  0  0  0  0  0  0  0  0  0  0  0
    9.7580    0.9950   23.3000 C   0  0  0  0  0  0  0  0  0  0  0  0
  1  2  2  0
  2 10  1  0
  2  3  1  0
  3  4  1  0
  4  5  2  0
  4  9  1  0
  5  6  1  0
  6  7  2  0
  7  8  1  0
  8  9  2  0
 10 11  1  0
 11 12  2  0
 11 21  1  0
 12 13  1  0
 13 14  2  0
 14 15  1  0
 15 16  1  0
 15 21  2  0
 16 17  1  0
 17 18  1  0
 18 19  1  0
 19 20  1  0
M  END
