WPC1145_minimised.pdb
     RDKit          3D

 24 26  0  0  0  0  0  0  0  0999 V2000
    8.5850    0.0700   19.8700 O   0  0  0  0  0  0  0  0  0  0  0  0
    7.9000   -0.3460   20.7840 C   0  0  0  0  0  0  0  0  0  0  0  0
    6.5340   -0.3240   20.7290 N   0  0  0  0  0  0  0  0  0  0  0  0
    5.8100    0.2910   19.6790 C   0  0  0  0  0  0  0  0  0  0  0  0
    4.8810    1.2960   19.9750 C   0  0  0  0  0  0  0  0  0  0  0  0
    4.3140    1.9950   18.9010 C   0  0  0  0  0  0  0  0  0  0  0  0
    4.6950    1.6790   17.5870 C   0  0  0  0  0  0  0  0  0  0  0  0
    5.5580    0.6810   17.2920 N   0  0  0  0  0  0  0  0  0  0  0  0
    6.1110    0.0170   18.3270 C   0  0  0  0  0  0  0  0  0  0  0  0
    8.4160   -0.8220   21.9560 N   0  0  0  0  0  0  0  0  0  0  0  0
    9.7790   -0.6890   22.2760 C   0  0  0  0  0  0  0  0  0  0  0  0
   10.7280   -1.5740   21.7480 C   0  0  0  0  0  0  0  0  0  0  0  0
   12.1000   -1.3000   21.8850 C   0  0  0  0  0  0  0  0  0  0  0  0
   12.5170   -0.1320   22.5430 C   0  0  0  0  0  0  0  0  0  0  0  0
   11.5610    0.7300   23.0970 C   0  0  0  0  0  0  0  0  0  0  0  0
   12.0610    2.2240   23.8980 S   0  0  0  0  0  0  0  0  0  0  0  0
   11.1030    3.5040   22.9930 C   0  0  0  0  0  0  0  0  0  0  0  0
   10.6020    4.5990   23.9490 C   0  0  0  0  0  0  0  0  0  0  0  0
   11.6520    5.4800   24.4710 N   0  0  0  0  0  0  0  0  0  0  0  0
   11.7240    6.0200   25.7350 C   0  0  0  0  0  0  0  0  0  0  0  0
   12.6730    7.0020   25.6800 C   0  0  0  0  0  0  0  0  0  0  0  0
   13.2230    7.0430   24.4280 N   0  0  0  0  0  0  0  0  0  0  0  0
   12.6810    6.0480   23.7550 C   0  0  0  0  0  0  0  0  0  0  0  0
   10.1950    0.4430   22.9800 C   0  0  0  0  0  0  0  0  0  0  0  0
  1  2  2  0
  2  3  1  0
  2 10  1  0
  3  4  1  0
  4  5  2  0
  4  9  1  0
  5  6  1  0
  6  7  2  0
  7  8  1  0
  8  9  2  0
 10 11  1  0
 11 24  1  0
 11 12  2  0
 12 13  1  0
 13 14  2  0
 14 15  1  0
 15 16  1  0
 15 24  2  0
 16 17  1  0
 17 18  1  0
 18 19  1  0
 19 20  1  0
 19 23  1  0
 20 21  2  0
 21 22  1  0
 22 23  2  0
M  END
