WPC1037_minimised.pdb
     RDKit          3D

 24 26  0  0  0  0  0  0  0  0999 V2000
   12.4940    6.8540   24.9180 N   0  0  0  0  0  0  0  0  0  0  0  0
   12.1320    5.7010   24.3250 C   0  0  0  0  0  0  0  0  0  0  0  0
   13.0990    5.0510   23.7630 N   0  0  0  0  0  0  0  0  0  0  0  0
   12.5840    3.8160   23.4610 C   0  0  0  0  0  0  0  0  0  0  0  0
   13.5800    2.5560   22.7450 S   0  0  0  0  0  0  0  0  0  0  0  0
   13.2330    0.9910   23.6640 C   0  0  0  0  0  0  0  0  0  0  0  0
   11.9060    0.3670   23.2980 C   0  0  0  0  0  0  0  0  0  0  0  0
   11.7850   -0.3570   22.1040 C   0  0  0  0  0  0  0  0  0  0  0  0
   10.5280   -0.8300   21.7080 C   0  0  0  0  0  0  0  0  0  0  0  0
    9.3890   -0.5500   22.4780 C   0  0  0  0  0  0  0  0  0  0  0  0
    8.0960   -0.7640   21.9590 N   0  0  0  0  0  0  0  0  0  0  0  0
    7.7040   -0.3890   20.7010 C   0  0  0  0  0  0  0  0  0  0  0  0
    8.4600   -0.1210   19.7870 O   0  0  0  0  0  0  0  0  0  0  0  0
    6.3470   -0.2790   20.5790 N   0  0  0  0  0  0  0  0  0  0  0  0
    5.6990    0.3710   19.5030 C   0  0  0  0  0  0  0  0  0  0  0  0
    4.7680    1.3810   19.7760 C   0  0  0  0  0  0  0  0  0  0  0  0
    4.2580    2.1060   18.6920 C   0  0  0  0  0  0  0  0  0  0  0  0
    4.7020    1.8170   17.3940 C   0  0  0  0  0  0  0  0  0  0  0  0
    5.5660    0.8150   17.1170 N   0  0  0  0  0  0  0  0  0  0  0  0
    6.0620    0.1220   18.1610 C   0  0  0  0  0  0  0  0  0  0  0  0
    9.5260    0.0890   23.7170 C   0  0  0  0  0  0  0  0  0  0  0  0
   10.7880    0.5320   24.1360 C   0  0  0  0  0  0  0  0  0  0  0  0
   11.3820    3.4920   23.9030 N   0  0  0  0  0  0  0  0  0  0  0  0
   10.6760    4.7840   24.5890 S   0  0  0  0  0  0  0  0  0  0  0  0
  1  2  1  0
  2  3  2  0
  2 24  1  0
  3  4  1  0
  4 23  2  0
  4  5  1  0
  5  6  1  0
  6  7  1  0
  7 22  1  0
  7  8  2  0
  8  9  1  0
  9 10  2  0
 10 11  1  0
 10 21  1  0
 11 12  1  0
 12 13  2  0
 12 14  1  0
 14 15  1  0
 15 16  2  0
 15 20  1  0
 16 17  1  0
 17 18  2  0
 18 19  1  0
 19 20  2  0
 21 22  2  0
 23 24  1  0
M  END
