WPC1470_minimised.pdb
     RDKit          3D

 19 20  0  0  0  0  0  0  0  0999 V2000
    8.7700    0.2260   19.9340 O   0  0  0  0  0  0  0  0  0  0  0  0
    8.0900    0.1180   20.9310 C   0  0  0  0  0  0  0  0  0  0  0  0
    6.7240    0.0640   20.8830 N   0  0  0  0  0  0  0  0  0  0  0  0
    5.9700    0.5000   19.7650 C   0  0  0  0  0  0  0  0  0  0  0  0
    4.9990    1.4890   19.9610 C   0  0  0  0  0  0  0  0  0  0  0  0
    4.3970    2.0460   18.8270 C   0  0  0  0  0  0  0  0  0  0  0  0
    4.7930    1.6190   17.5530 C   0  0  0  0  0  0  0  0  0  0  0  0
    5.6870    0.6240   17.3530 N   0  0  0  0  0  0  0  0  0  0  0  0
    6.2710    0.0910   18.4470 C   0  0  0  0  0  0  0  0  0  0  0  0
    8.6080    0.1220   22.1950 N   0  0  0  0  0  0  0  0  0  0  0  0
    9.9100    0.5690   22.4990 C   0  0  0  0  0  0  0  0  0  0  0  0
   11.0260   -0.2600   22.3140 C   0  0  0  0  0  0  0  0  0  0  0  0
   12.3100    0.2280   22.6120 C   0  0  0  0  0  0  0  0  0  0  0  0
   12.4720    1.5390   23.0920 C   0  0  0  0  0  0  0  0  0  0  0  0
   11.3600    2.3930   23.2260 C   0  0  0  0  0  0  0  0  0  0  0  0
   11.4950    3.8400   23.6940 C   0  0  0  0  0  0  0  0  0  0  0  0
   12.4620    4.7200   22.8720 C   0  0  0  0  0  0  0  0  0  0  0  0
   13.8270    4.4420   23.1790 O   0  0  0  0  0  0  0  0  0  0  0  0
   10.0800    1.8890   22.9360 C   0  0  0  0  0  0  0  0  0  0  0  0
  1  2  2  0
  2 10  1  0
  2  3  1  0
  3  4  1  0
  4  5  2  0
  4  9  1  0
  5  6  1  0
  6  7  2  0
  7  8  1  0
  8  9  2  0
 10 11  1  0
 11 12  2  0
 11 19  1  0
 12 13  1  0
 13 14  2  0
 14 15  1  0
 15 16  1  0
 15 19  2  0
 16 17  1  0
 17 18  1  0
M  END
