WPC1077_minimised.pdb
     RDKit          3D

 24 25  0  0  0  0  0  0  0  0999 V2000
   12.5610    7.1150   25.4190 C   0  0  0  0  0  0  0  0  0  0  0  0
   11.8500    5.7600   25.2060 C   0  0  0  0  0  0  0  0  0  0  0  0
   11.0290    5.5960   23.6270 S   0  0  0  0  0  0  0  0  0  0  0  0
   12.0420    5.3880   22.6270 O   0  0  0  0  0  0  0  0  0  0  0  0
   10.0260    6.6280   23.5650 O   0  0  0  0  0  0  0  0  0  0  0  0
   10.2090    4.1900   23.7030 N   0  0  0  0  0  0  0  0  0  0  0  0
   10.8000    3.0100   24.3590 C   0  0  0  0  0  0  0  0  0  0  0  0
   11.8590    2.2820   23.4940 C   0  0  0  0  0  0  0  0  0  0  0  0
   11.3670    1.0000   22.8370 C   0  0  0  0  0  0  0  0  0  0  0  0
   12.2920   -0.0140   22.5310 C   0  0  0  0  0  0  0  0  0  0  0  0
   11.8590   -1.2250   21.9680 C   0  0  0  0  0  0  0  0  0  0  0  0
   10.4950   -1.4240   21.7010 C   0  0  0  0  0  0  0  0  0  0  0  0
    9.5770   -0.4040   21.9750 C   0  0  0  0  0  0  0  0  0  0  0  0
    8.2180   -0.5410   21.6510 N   0  0  0  0  0  0  0  0  0  0  0  0
    7.7260   -0.2910   20.4070 C   0  0  0  0  0  0  0  0  0  0  0  0
    8.4220   -0.1970   19.4170 O   0  0  0  0  0  0  0  0  0  0  0  0
    6.3760   -0.0830   20.3940 N   0  0  0  0  0  0  0  0  0  0  0  0
    5.6690    0.5290   19.3340 C   0  0  0  0  0  0  0  0  0  0  0  0
    4.7340    1.5290   19.6290 C   0  0  0  0  0  0  0  0  0  0  0  0
    4.1560    2.2180   18.5550 C   0  0  0  0  0  0  0  0  0  0  0  0
    4.5540    1.9170   17.2450 C   0  0  0  0  0  0  0  0  0  0  0  0
    5.4180    0.9210   16.9510 N   0  0  0  0  0  0  0  0  0  0  0  0
    5.9600    0.2450   17.9820 C   0  0  0  0  0  0  0  0  0  0  0  0
   10.0100    0.8070   22.5230 C   0  0  0  0  0  0  0  0  0  0  0  0
  1  2  1  0
  2  3  1  0
  3  4  2  0
  3  5  2  0
  3  6  1  0
  6  7  1  0
  7  8  1  0
  8  9  1  0
  9 24  2  0
  9 10  1  0
 10 11  2  0
 11 12  1  0
 12 13  2  0
 13 14  1  0
 13 24  1  0
 14 15  1  0
 15 16  2  0
 15 17  1  0
 17 18  1  0
 18 19  2  0
 18 23  1  0
 19 20  1  0
 20 21  2  0
 21 22  1  0
 22 23  2  0
M  END
