WPC1276_minimised.pdb
     RDKit          3D

 24 25  0  0  0  0  0  0  0  0999 V2000
    8.3400    5.4020   21.6380 C   0  0  0  0  0  0  0  0  0  0  0  0
    7.9070    3.9270   21.7090 C   0  0  0  0  0  0  0  0  0  0  0  0
    8.2160    3.3470   23.0780 C   0  0  0  0  0  0  0  0  0  0  0  0
    9.6520    3.1420   23.2500 N   0  0  0  0  0  0  0  0  0  0  0  0
   10.5100    4.0230   23.8490 C   0  0  0  0  0  0  0  0  0  0  0  0
   10.1830    5.0840   24.3480 O   0  0  0  0  0  0  0  0  0  0  0  0
   12.1880    3.3900   23.7650 S   0  0  0  0  0  0  0  0  0  0  0  0
   12.0160    1.6620   24.4210 C   0  0  0  0  0  0  0  0  0  0  0  0
   11.5600    0.6140   23.4310 C   0  0  0  0  0  0  0  0  0  0  0  0
   12.4950   -0.0150   22.5920 C   0  0  0  0  0  0  0  0  0  0  0  0
   12.0760   -1.0160   21.7030 C   0  0  0  0  0  0  0  0  0  0  0  0
   10.7120   -1.3270   21.6030 C   0  0  0  0  0  0  0  0  0  0  0  0
    9.7750   -0.6600   22.4000 C   0  0  0  0  0  0  0  0  0  0  0  0
    8.4070   -0.7130   22.0680 N   0  0  0  0  0  0  0  0  0  0  0  0
    7.9270   -0.1680   20.9060 C   0  0  0  0  0  0  0  0  0  0  0  0
    8.6410    0.2910   20.0340 O   0  0  0  0  0  0  0  0  0  0  0  0
    6.5650   -0.1430   20.8010 N   0  0  0  0  0  0  0  0  0  0  0  0
    5.8810    0.4540   19.7150 C   0  0  0  0  0  0  0  0  0  0  0  0
    4.9550    1.4780   19.9520 C   0  0  0  0  0  0  0  0  0  0  0  0
    4.4220    2.1420   18.8390 C   0  0  0  0  0  0  0  0  0  0  0  0
    4.8270    1.7700   17.5470 C   0  0  0  0  0  0  0  0  0  0  0  0
    5.6890    0.7570   17.3090 N   0  0  0  0  0  0  0  0  0  0  0  0
    6.2140    0.1310   18.3800 C   0  0  0  0  0  0  0  0  0  0  0  0
   10.2070    0.2430   23.3730 C   0  0  0  0  0  0  0  0  0  0  0  0
  1  2  1  0
  2  3  1  0
  3  4  1  0
  4  5  1  0
  5  6  2  0
  5  7  1  0
  7  8  1  0
  8  9  1  0
  9 24  2  0
  9 10  1  0
 10 11  2  0
 11 12  1  0
 12 13  2  0
 13 14  1  0
 13 24  1  0
 14 15  1  0
 15 16  2  0
 15 17  1  0
 17 18  1  0
 18 19  2  0
 18 23  1  0
 19 20  1  0
 20 21  2  0
 21 22  1  0
 22 23  2  0
M  END
