WPC1113_minimised.pdb
     RDKit          3D

 22 23  0  0  0  0  0  0  0  0999 V2000
   12.8020    5.2800   24.3960 N   0  0  0  0  0  0  0  0  0  0  0  0
   11.8240    5.1680   23.1700 S   0  0  0  0  0  0  0  0  0  0  0  0
   10.9570    6.1720   23.7310 O   0  0  0  0  0  0  0  0  0  0  0  0
   12.8770    5.4460   22.2330 O   0  0  0  0  0  0  0  0  0  0  0  0
   11.2290    3.5050   23.2860 C   0  0  0  0  0  0  0  0  0  0  0  0
   12.5410    2.2190   23.3900 S   0  0  0  0  0  0  0  0  0  0  0  0
   11.7540    0.7170   22.8590 C   0  0  0  0  0  0  0  0  0  0  0  0
   12.5670   -0.3640   22.4960 C   0  0  0  0  0  0  0  0  0  0  0  0
   11.9880   -1.5680   22.0720 C   0  0  0  0  0  0  0  0  0  0  0  0
   10.5930   -1.6730   21.9560 C   0  0  0  0  0  0  0  0  0  0  0  0
    9.7820   -0.5780   22.2810 C   0  0  0  0  0  0  0  0  0  0  0  0
    8.4020   -0.6020   22.0050 N   0  0  0  0  0  0  0  0  0  0  0  0
    7.8890   -0.1690   20.8150 C   0  0  0  0  0  0  0  0  0  0  0  0
    8.5850    0.1670   19.8780 O   0  0  0  0  0  0  0  0  0  0  0  0
    6.5240   -0.1030   20.7660 N   0  0  0  0  0  0  0  0  0  0  0  0
    5.8040    0.4650   19.6860 C   0  0  0  0  0  0  0  0  0  0  0  0
    4.8530    1.4620   19.9370 C   0  0  0  0  0  0  0  0  0  0  0  0
    4.2830    2.1100   18.8320 C   0  0  0  0  0  0  0  0  0  0  0  0
    4.6870    1.7590   17.5350 C   0  0  0  0  0  0  0  0  0  0  0  0
    5.5650    0.7620   17.2830 N   0  0  0  0  0  0  0  0  0  0  0  0
    6.1170    0.1450   18.3460 C   0  0  0  0  0  0  0  0  0  0  0  0
   10.3580    0.6060   22.7550 C   0  0  0  0  0  0  0  0  0  0  0  0
  1  2  1  0
  2  3  2  0
  2  4  2  0
  2  5  1  0
  5  6  1  0
  6  7  1  0
  7 22  2  0
  7  8  1  0
  8  9  2  0
  9 10  1  0
 10 11  2  0
 11 12  1  0
 11 22  1  0
 12 13  1  0
 13 14  2  0
 13 15  1  0
 15 16  1  0
 16 17  2  0
 16 21  1  0
 17 18  1  0
 18 19  2  0
 19 20  1  0
 20 21  2  0
M  END
