WPC1333_minimised.pdb
     RDKit          3D

 24 25  0  0  1  0  0  0  0  0999 V2000
   12.2400    4.8370   23.4220 C   0  0  0  0  0  0  0  0  0  0  0  0
   11.4370    3.5490   23.1460 C   0  0  1  0  0  0  0  0  0  0  0  0
   12.2090    2.3090   23.6630 C   0  0  0  0  0  0  0  0  0  0  0  0
   11.7870    0.9880   23.0350 C   0  0  0  0  0  0  0  0  0  0  0  0
   12.7500    0.1200   22.4880 C   0  0  0  0  0  0  0  0  0  0  0  0
   12.3520   -1.0730   21.8610 C   0  0  0  0  0  0  0  0  0  0  0  0
   10.9880   -1.3880   21.7570 C   0  0  0  0  0  0  0  0  0  0  0  0
   10.0280   -0.5200   22.2890 C   0  0  0  0  0  0  0  0  0  0  0  0
    8.6630   -0.6830   21.9800 N   0  0  0  0  0  0  0  0  0  0  0  0
    8.1070   -0.1280   20.8600 C   0  0  0  0  0  0  0  0  0  0  0  0
    8.7550    0.4410   20.0050 O   0  0  0  0  0  0  0  0  0  0  0  0
    6.7490   -0.2300   20.7720 N   0  0  0  0  0  0  0  0  0  0  0  0
    5.9970    0.3540   19.7230 C   0  0  0  0  0  0  0  0  0  0  0  0
    5.0620    1.3580   20.0040 C   0  0  0  0  0  0  0  0  0  0  0  0
    4.4710    2.0200   18.9180 C   0  0  0  0  0  0  0  0  0  0  0  0
    4.8400    1.6750   17.6080 C   0  0  0  0  0  0  0  0  0  0  0  0
    5.7150    0.6830   17.3280 N   0  0  0  0  0  0  0  0  0  0  0  0
    6.2910    0.0560   18.3740 C   0  0  0  0  0  0  0  0  0  0  0  0
   10.4290    0.6370   22.9590 C   0  0  0  0  0  0  0  0  0  0  0  0
   10.1190    3.6440   23.8000 N   0  0  0  0  0  0  0  0  0  0  0  0
    9.1150    4.4940   23.1380 C   0  0  0  0  0  0  0  0  0  0  0  0
    8.2210    3.6820   22.1780 C   0  0  0  0  0  0  0  0  0  0  0  0
    7.3260    2.7350   22.8520 C   0  0  0  0  0  0  0  0  0  0  0  0
    6.6270    1.9630   23.3510 N   0  0  0  0  0  0  0  0  0  0  0  0
  2  1  1  1
  2 20  1  0
  2  3  1  0
  3  4  1  0
  4 19  2  0
  4  5  1  0
  5  6  2  0
  6  7  1  0
  7  8  2  0
  8  9  1  0
  8 19  1  0
  9 10  1  0
 10 11  2  0
 10 12  1  0
 12 13  1  0
 13 14  2  0
 13 18  1  0
 14 15  1  0
 15 16  2  0
 16 17  1  0
 17 18  2  0
 20 21  1  0
 21 22  1  0
 22 23  1  0
 23 24  3  0
M  END
