WPC1354_minimised.pdb
     RDKit          3D

 24 26  0  0  1  0  0  0  0  0999 V2000
    8.6100   -0.3710   19.6490 O   0  0  0  0  0  0  0  0  0  0  0  0
    7.9060   -0.6580   20.5980 C   0  0  0  0  0  0  0  0  0  0  0  0
    6.5500   -0.4930   20.5750 N   0  0  0  0  0  0  0  0  0  0  0  0
    5.8540    0.2050   19.5580 C   0  0  0  0  0  0  0  0  0  0  0  0
    4.9760    1.2400   19.9050 C   0  0  0  0  0  0  0  0  0  0  0  0
    4.4100    1.9920   18.8660 C   0  0  0  0  0  0  0  0  0  0  0  0
    4.7490    1.7030   17.5360 C   0  0  0  0  0  0  0  0  0  0  0  0
    5.5700    0.6860   17.1930 N   0  0  0  0  0  0  0  0  0  0  0  0
    6.1150   -0.0350   18.1920 C   0  0  0  0  0  0  0  0  0  0  0  0
    8.3800   -1.1110   21.7980 N   0  0  0  0  0  0  0  0  0  0  0  0
    9.6950   -0.8480   22.2200 C   0  0  0  0  0  0  0  0  0  0  0  0
   10.8020   -1.3830   21.5550 C   0  0  0  0  0  0  0  0  0  0  0  0
   12.0950   -0.9070   21.8260 C   0  0  0  0  0  0  0  0  0  0  0  0
   12.2710    0.1110   22.7770 C   0  0  0  0  0  0  0  0  0  0  0  0
   11.1620    0.6020   23.4890 C   0  0  0  0  0  0  0  0  0  0  0  0
   11.3350    1.5990   24.6110 C   0  0  0  0  0  0  0  0  0  0  0  0
   11.1280    3.1000   24.2730 C   0  0  1  0  0  0  0  0  0  0  0  0
   12.2000    3.7120   23.3560 C   0  0  0  0  0  0  0  0  0  0  0  0
   12.0810    5.2440   23.4800 C   0  0  0  0  0  0  0  0  0  0  0  0
   10.6280    5.7400   23.2330 C   0  0  0  0  0  0  0  0  0  0  0  0
    9.6390    4.8960   23.8600 O   0  0  0  0  0  0  0  0  0  0  0  0
    9.7530    3.5380   23.7420 C   0  0  0  0  0  0  0  0  0  0  0  0
    8.7690    2.8260   23.6860 O   0  0  0  0  0  0  0  0  0  0  0  0
    9.8830    0.0950   23.2260 C   0  0  0  0  0  0  0  0  0  0  0  0
  1  2  2  0
  2  3  1  0
  2 10  1  0
  3  4  1  0
  4  5  2  0
  4  9  1  0
  5  6  1  0
  6  7  2  0
  7  8  1  0
  8  9  2  0
 10 11  1  0
 11 24  1  0
 11 12  2  0
 12 13  1  0
 13 14  2  0
 14 15  1  0
 15 16  1  0
 15 24  2  0
 17 16  1  6
 17 18  1  0
 17 22  1  0
 18 19  1  0
 19 20  1  0
 20 21  1  0
 21 22  1  0
 22 23  2  0
M  END
