WPC1068_minimised.pdb
     RDKit          3D

 21 22  0  0  0  0  0  0  0  0999 V2000
   13.4720    5.5230   21.5450 N   0  0  0  0  0  0  0  0  0  0  0  0
   13.1170    4.9700   22.6210 C   0  0  0  0  0  0  0  0  0  0  0  0
   14.1540    4.6910   23.4450 N   0  0  0  0  0  0  0  0  0  0  0  0
   11.7480    5.1310   23.2390 C   0  0  0  0  0  0  0  0  0  0  0  0
   11.3070    3.9950   24.1940 C   0  0  0  0  0  0  0  0  0  0  0  0
   11.1780    2.6150   23.5590 C   0  0  0  0  0  0  0  0  0  0  0  0
   12.3050    1.8010   23.3340 C   0  0  0  0  0  0  0  0  0  0  0  0
   12.1630    0.5260   22.7620 C   0  0  0  0  0  0  0  0  0  0  0  0
   10.8860    0.0440   22.4300 C   0  0  0  0  0  0  0  0  0  0  0  0
    9.7580    0.8400   22.6790 C   0  0  0  0  0  0  0  0  0  0  0  0
    8.4670    0.3960   22.3270 N   0  0  0  0  0  0  0  0  0  0  0  0
    8.0160    0.3190   21.0410 C   0  0  0  0  0  0  0  0  0  0  0  0
    8.7390    0.3860   20.0690 O   0  0  0  0  0  0  0  0  0  0  0  0
    6.6540    0.2330   20.9400 N   0  0  0  0  0  0  0  0  0  0  0  0
    5.9290    0.6130   19.7860 C   0  0  0  0  0  0  0  0  0  0  0  0
    4.9260    1.5790   19.9240 C   0  0  0  0  0  0  0  0  0  0  0  0
    4.3420    2.0820   18.7570 C   0  0  0  0  0  0  0  0  0  0  0  0
    4.7840    1.6230   17.5090 C   0  0  0  0  0  0  0  0  0  0  0  0
    5.7090    0.6470   17.3640 N   0  0  0  0  0  0  0  0  0  0  0  0
    6.2800    0.1700   18.4900 C   0  0  0  0  0  0  0  0  0  0  0  0
    9.9040    2.1200   23.2320 C   0  0  0  0  0  0  0  0  0  0  0  0
  1  2  2  0
  2  3  1  0
  2  4  1  0
  4  5  1  0
  5  6  1  0
  6 21  2  0
  6  7  1  0
  7  8  2  0
  8  9  1  0
  9 10  2  0
 10 11  1  0
 10 21  1  0
 11 12  1  0
 12 13  2  0
 12 14  1  0
 14 15  1  0
 15 16  2  0
 15 20  1  0
 16 17  1  0
 17 18  2  0
 18 19  1  0
 19 20  2  0
M  END
