WPC1570_minimised.pdb
     RDKit          3D

 19 20  0  0  0  0  0  0  0  0999 V2000
   14.0480    5.4380   21.7500 N   0  0  0  0  0  0  0  0  0  0  0  0
   13.1540    5.1570   22.4230 C   0  0  0  0  0  0  0  0  0  0  0  0
   11.8420    4.8530   23.4480 S   0  0  0  0  0  0  0  0  0  0  0  0
   11.5980    3.0900   23.2470 C   0  0  0  0  0  0  0  0  0  0  0  0
   12.6780    2.1900   23.2080 C   0  0  0  0  0  0  0  0  0  0  0  0
   12.4520    0.8150   23.0330 C   0  0  0  0  0  0  0  0  0  0  0  0
   11.1410    0.3330   22.8880 C   0  0  0  0  0  0  0  0  0  0  0  0
   10.0600    1.2270   22.9280 C   0  0  0  0  0  0  0  0  0  0  0  0
    8.7510    0.7780   22.6520 N   0  0  0  0  0  0  0  0  0  0  0  0
    8.2870    0.6030   21.3780 C   0  0  0  0  0  0  0  0  0  0  0  0
    9.0150    0.6200   20.4080 O   0  0  0  0  0  0  0  0  0  0  0  0
    6.9290    0.4670   21.2690 N   0  0  0  0  0  0  0  0  0  0  0  0
    6.2010    0.7070   20.0750 C   0  0  0  0  0  0  0  0  0  0  0  0
    5.1510    1.6310   20.1210 C   0  0  0  0  0  0  0  0  0  0  0  0
    4.5530    2.0020   18.9120 C   0  0  0  0  0  0  0  0  0  0  0  0
    5.0230    1.4550   17.7110 C   0  0  0  0  0  0  0  0  0  0  0  0
    5.9880    0.5100   17.6550 N   0  0  0  0  0  0  0  0  0  0  0  0
    6.5780    0.1650   18.8220 C   0  0  0  0  0  0  0  0  0  0  0  0
   10.2890    2.5990   23.1140 C   0  0  0  0  0  0  0  0  0  0  0  0
  1  2  3  0
  2  3  1  0
  3  4  1  0
  4 19  2  0
  4  5  1  0
  5  6  2  0
  6  7  1  0
  7  8  2  0
  8  9  1  0
  8 19  1  0
  9 10  1  0
 10 11  2  0
 10 12  1  0
 12 13  1  0
 13 14  2  0
 13 18  1  0
 14 15  1  0
 15 16  2  0
 16 17  1  0
 17 18  2  0
M  END
