WPC1058_minimised.pdb
     RDKit          3D

 23 24  0  0  0  0  0  0  0  0999 V2000
    8.9270    5.8490   22.2470 N   0  0  0  0  0  0  0  0  0  0  0  0
    9.9940    5.8940   23.0720 C   0  0  0  0  0  0  0  0  0  0  0  0
   10.0930    6.7360   23.9210 O   0  0  0  0  0  0  0  0  0  0  0  0
   10.8810    4.9120   22.8310 N   0  0  0  0  0  0  0  0  0  0  0  0
   12.0210    4.5640   23.4980 C   0  0  0  0  0  0  0  0  0  0  0  0
   12.5040    5.1890   24.4200 O   0  0  0  0  0  0  0  0  0  0  0  0
   12.6280    3.2620   22.9930 C   0  0  0  0  0  0  0  0  0  0  0  0
   11.7040    2.0500   23.1210 C   0  0  0  0  0  0  0  0  0  0  0  0
   11.8770    0.9770   22.2300 C   0  0  0  0  0  0  0  0  0  0  0  0
   10.8450    0.0490   22.0380 C   0  0  0  0  0  0  0  0  0  0  0  0
    9.6430    0.1900   22.7470 C   0  0  0  0  0  0  0  0  0  0  0  0
    8.4620   -0.4200   22.2740 N   0  0  0  0  0  0  0  0  0  0  0  0
    7.9940   -0.1970   21.0030 C   0  0  0  0  0  0  0  0  0  0  0  0
    8.6900    0.1770   20.0770 O   0  0  0  0  0  0  0  0  0  0  0  0
    6.6390   -0.3360   20.8690 N   0  0  0  0  0  0  0  0  0  0  0  0
    5.9200    0.2180   19.7790 C   0  0  0  0  0  0  0  0  0  0  0  0
    4.9800    1.2270   20.0290 C   0  0  0  0  0  0  0  0  0  0  0  0
    4.4220    1.8880   18.9270 C   0  0  0  0  0  0  0  0  0  0  0  0
    4.8190    1.5300   17.6300 C   0  0  0  0  0  0  0  0  0  0  0  0
    5.6940    0.5310   17.3790 N   0  0  0  0  0  0  0  0  0  0  0  0
    6.2450   -0.0930   18.4410 C   0  0  0  0  0  0  0  0  0  0  0  0
    9.5480    1.1330   23.7800 C   0  0  0  0  0  0  0  0  0  0  0  0
   10.5850    2.0570   23.9780 C   0  0  0  0  0  0  0  0  0  0  0  0
  1  2  1  0
  2  3  2  0
  2  4  1  0
  4  5  1  0
  5  6  2  0
  5  7  1  0
  7  8  1  0
  8 23  2  0
  8  9  1  0
  9 10  2  0
 10 11  1  0
 11 12  1  0
 11 22  2  0
 12 13  1  0
 13 14  2  0
 13 15  1  0
 15 16  1  0
 16 17  2  0
 16 21  1  0
 17 18  1  0
 18 19  2  0
 19 20  1  0
 20 21  2  0
 22 23  1  0
M  END
