WPC1074_minimised.pdb
     RDKit          3D

 22 24  0  0  0  0  0  0  0  0999 V2000
    8.3760    0.3100   19.8660 O   0  0  0  0  0  0  0  0  0  0  0  0
    7.6390   -0.0330   20.7710 C   0  0  0  0  0  0  0  0  0  0  0  0
    6.2790    0.0240   20.6640 N   0  0  0  0  0  0  0  0  0  0  0  0
    5.6030    0.6010   19.5630 C   0  0  0  0  0  0  0  0  0  0  0  0
    4.6510    1.6030   19.7860 C   0  0  0  0  0  0  0  0  0  0  0  0
    4.1270    2.2600   18.6660 C   0  0  0  0  0  0  0  0  0  0  0  0
    4.5740    1.9090   17.3830 C   0  0  0  0  0  0  0  0  0  0  0  0
    5.4580    0.9110   17.1570 N   0  0  0  0  0  0  0  0  0  0  0  0
    5.9680    0.2860   18.2360 C   0  0  0  0  0  0  0  0  0  0  0  0
    8.0810   -0.4660   21.9890 N   0  0  0  0  0  0  0  0  0  0  0  0
    9.4320   -0.3870   22.3720 C   0  0  0  0  0  0  0  0  0  0  0  0
   10.4010   -1.1440   21.6980 C   0  0  0  0  0  0  0  0  0  0  0  0
   11.7650   -0.8940   21.9120 C   0  0  0  0  0  0  0  0  0  0  0  0
   12.1540    0.1140   22.8070 C   0  0  0  0  0  0  0  0  0  0  0  0
   11.1810    0.8370   23.5210 C   0  0  0  0  0  0  0  0  0  0  0  0
   11.5880    1.9130   24.5060 C   0  0  0  0  0  0  0  0  0  0  0  0
   11.3390    3.3260   24.0540 C   0  0  0  0  0  0  0  0  0  0  0  0
   10.6120    3.6620   22.9480 C   0  0  0  0  0  0  0  0  0  0  0  0
   10.6220    5.0370   22.9190 N   0  0  0  0  0  0  0  0  0  0  0  0
   11.3550    5.4680   24.0000 C   0  0  0  0  0  0  0  0  0  0  0  0
   11.7890    4.4440   24.7080 N   0  0  0  0  0  0  0  0  0  0  0  0
    9.8200    0.5750   23.3090 C   0  0  0  0  0  0  0  0  0  0  0  0
  1  2  2  0
  2  3  1  0
  2 10  1  0
  3  4  1  0
  4  5  2  0
  4  9  1  0
  5  6  1  0
  6  7  2  0
  7  8  1  0
  8  9  2  0
 10 11  1  0
 11 22  1  0
 11 12  2  0
 12 13  1  0
 13 14  2  0
 14 15  1  0
 15 16  1  0
 15 22  2  0
 16 17  1  0
 17 18  2  0
 17 21  1  0
 18 19  1  0
 19 20  1  0
 20 21  2  0
M  END
