WPC1523_minimised.pdb
     RDKit          3D

 24 26  0  0  0  0  0  0  0  0999 V2000
    8.4420   -0.1080   19.6240 O   0  0  0  0  0  0  0  0  0  0  0  0
    7.6780   -0.2460   20.5590 C   0  0  0  0  0  0  0  0  0  0  0  0
    6.3260   -0.0820   20.4530 N   0  0  0  0  0  0  0  0  0  0  0  0
    5.6810    0.5450   19.3640 C   0  0  0  0  0  0  0  0  0  0  0  0
    4.7360    1.5450   19.6230 C   0  0  0  0  0  0  0  0  0  0  0  0
    4.2230    2.2520   18.5290 C   0  0  0  0  0  0  0  0  0  0  0  0
    4.6890    1.9670   17.2390 C   0  0  0  0  0  0  0  0  0  0  0  0
    5.5670    0.9730   16.9780 N   0  0  0  0  0  0  0  0  0  0  0  0
    6.0530    0.2840   18.0280 C   0  0  0  0  0  0  0  0  0  0  0  0
    8.0740   -0.5060   21.8370 N   0  0  0  0  0  0  0  0  0  0  0  0
    9.3880   -0.2930   22.2850 C   0  0  0  0  0  0  0  0  0  0  0  0
   10.4600   -1.0340   21.7670 C   0  0  0  0  0  0  0  0  0  0  0  0
   11.7770   -0.7070   22.1270 C   0  0  0  0  0  0  0  0  0  0  0  0
   12.0120    0.3570   23.0130 C   0  0  0  0  0  0  0  0  0  0  0  0
   10.9330    1.0880   23.5450 C   0  0  0  0  0  0  0  0  0  0  0  0
   11.1690    2.2360   24.5030 C   0  0  0  0  0  0  0  0  0  0  0  0
   11.4700    3.4870   23.8090 N   0  0  0  0  0  0  0  0  0  0  0  0
   12.6780    3.7710   23.2500 C   0  0  0  0  0  0  0  0  0  0  0  0
   13.6930    3.1050   23.3140 O   0  0  0  0  0  0  0  0  0  0  0  0
   12.4460    5.0880   22.6680 C   0  0  0  0  0  0  0  0  0  0  0  0
   11.2340    5.5330   22.9390 N   0  0  0  0  0  0  0  0  0  0  0  0
   10.5880    4.5180   23.6190 C   0  0  0  0  0  0  0  0  0  0  0  0
    9.4520    4.5730   24.0330 O   0  0  0  0  0  0  0  0  0  0  0  0
    9.6220    0.7600   23.1760 C   0  0  0  0  0  0  0  0  0  0  0  0
  1  2  2  0
  2  3  1  0
  2 10  1  0
  3  4  1  0
  4  5  2  0
  4  9  1  0
  5  6  1  0
  6  7  2  0
  7  8  1  0
  8  9  2  0
 10 11  1  0
 11 24  1  0
 11 12  2  0
 12 13  1  0
 13 14  2  0
 14 15  1  0
 15 16  1  0
 15 24  2  0
 16 17  1  0
 17 18  1  0
 17 22  1  0
 18 19  2  0
 18 20  1  0
 20 21  2  0
 21 22  1  0
 22 23  2  0
M  END
