WPC1677_minimised.pdb
     RDKit          3D

 21 22  0  0  0  0  0  0  0  0999 V2000
   13.0800    4.9140   23.9120 O   0  0  0  0  0  0  0  0  0  0  0  0
   12.1700    4.7160   23.1310 C   0  0  0  0  0  0  0  0  0  0  0  0
   12.2880    5.0180   21.8310 O   0  0  0  0  0  0  0  0  0  0  0  0
   10.7740    4.3090   23.5900 C   0  0  0  0  0  0  0  0  0  0  0  0
   10.8060    3.0080   24.4180 C   0  0  0  0  0  0  0  0  0  0  0  0
   10.8980    1.7560   23.5680 C   0  0  0  0  0  0  0  0  0  0  0  0
   12.1370    1.2250   23.1660 C   0  0  0  0  0  0  0  0  0  0  0  0
   12.1800    0.0660   22.3710 C   0  0  0  0  0  0  0  0  0  0  0  0
   10.9860   -0.5650   21.9790 C   0  0  0  0  0  0  0  0  0  0  0  0
    9.7530   -0.0370   22.3910 C   0  0  0  0  0  0  0  0  0  0  0  0
    8.5290   -0.5680   21.9420 N   0  0  0  0  0  0  0  0  0  0  0  0
    8.0040   -0.2570   20.7210 C   0  0  0  0  0  0  0  0  0  0  0  0
    8.6610    0.1830   19.8010 O   0  0  0  0  0  0  0  0  0  0  0  0
    6.6430   -0.3840   20.6460 N   0  0  0  0  0  0  0  0  0  0  0  0
    5.8850    0.2180   19.6130 C   0  0  0  0  0  0  0  0  0  0  0  0
    4.9550    1.2140   19.9360 C   0  0  0  0  0  0  0  0  0  0  0  0
    4.3720    1.9280   18.8800 C   0  0  0  0  0  0  0  0  0  0  0  0
    4.7410    1.6360   17.5590 C   0  0  0  0  0  0  0  0  0  0  0  0
    5.6090    0.6500   17.2390 N   0  0  0  0  0  0  0  0  0  0  0  0
    6.1770   -0.0300   18.2560 C   0  0  0  0  0  0  0  0  0  0  0  0
    9.7130    1.1170   23.1800 C   0  0  0  0  0  0  0  0  0  0  0  0
  1  2  2  0
  2  3  1  0
  2  4  1  0
  4  5  1  0
  5  6  1  0
  6 21  2  0
  6  7  1  0
  7  8  2  0
  8  9  1  0
  9 10  2  0
 10 11  1  0
 10 21  1  0
 11 12  1  0
 12 13  2  0
 12 14  1  0
 14 15  1  0
 15 16  2  0
 15 20  1  0
 16 17  1  0
 17 18  2  0
 18 19  1  0
 19 20  2  0
M  END
