WPC1556_minimised.pdb
     RDKit          3D

 24 25  0  0  0  0  0  0  0  0999 V2000
   10.3860    6.0120   23.8730 C   0  0  0  0  0  0  0  0  0  0  0  0
   11.7880    5.8290   24.2970 N   0  0  0  0  0  0  0  0  0  0  0  0
   12.4880    6.9630   24.9180 C   0  0  0  0  0  0  0  0  0  0  0  0
   12.5160    4.7240   23.8900 C   0  0  0  0  0  0  0  0  0  0  0  0
   13.7000    4.8030   23.6280 O   0  0  0  0  0  0  0  0  0  0  0  0
   11.8500    3.4020   23.9320 C   0  0  0  0  0  0  0  0  0  0  0  0
   10.8880    3.1020   24.8380 C   0  0  0  0  0  0  0  0  0  0  0  0
   10.2960    1.5110   25.2060 S   0  0  0  0  0  0  0  0  0  0  0  0
   10.8420    0.4450   23.9050 C   0  0  0  0  0  0  0  0  0  0  0  0
   12.1940    0.1930   23.6170 C   0  0  0  0  0  0  0  0  0  0  0  0
   12.5330   -0.5760   22.4890 C   0  0  0  0  0  0  0  0  0  0  0  0
   11.5180   -1.1260   21.6860 C   0  0  0  0  0  0  0  0  0  0  0  0
   10.1730   -0.8970   22.0110 C   0  0  0  0  0  0  0  0  0  0  0  0
    9.1150   -1.2820   21.1750 N   0  0  0  0  0  0  0  0  0  0  0  0
    8.3520   -0.3560   20.5230 C   0  0  0  0  0  0  0  0  0  0  0  0
    8.6760    0.8080   20.4100 O   0  0  0  0  0  0  0  0  0  0  0  0
    7.1800   -0.8400   20.0220 N   0  0  0  0  0  0  0  0  0  0  0  0
    6.2840   -0.0750   19.2410 C   0  0  0  0  0  0  0  0  0  0  0  0
    5.6140    1.0240   19.7980 C   0  0  0  0  0  0  0  0  0  0  0  0
    4.8250    1.8110   18.9460 C   0  0  0  0  0  0  0  0  0  0  0  0
    4.7710    1.5060   17.5780 C   0  0  0  0  0  0  0  0  0  0  0  0
    5.4080    0.4390   17.0450 N   0  0  0  0  0  0  0  0  0  0  0  0
    6.1430   -0.3310   17.8680 C   0  0  0  0  0  0  0  0  0  0  0  0
    9.8430   -0.1150   23.1170 C   0  0  0  0  0  0  0  0  0  0  0  0
  1  2  1  0
  2  3  1  0
  2  4  1  0
  4  5  2  0
  4  6  1  0
  6  7  2  0
  7  8  1  0
  8  9  1  0
  9 24  2  0
  9 10  1  0
 10 11  2  0
 11 12  1  0
 12 13  2  0
 13 14  1  0
 13 24  1  0
 14 15  1  0
 15 16  2  0
 15 17  1  0
 17 18  1  0
 18 19  2  0
 18 23  1  0
 19 20  1  0
 20 21  2  0
 21 22  1  0
 22 23  2  0
M  END
