WPC1350_minimised.pdb
     RDKit          3D

 23 25  0  0  1  0  0  0  0  0999 V2000
    8.4990   -0.3780   19.7370 O   0  0  0  0  0  0  0  0  0  0  0  0
    7.7720   -0.5690   20.6930 C   0  0  0  0  0  0  0  0  0  0  0  0
    6.4220   -0.3490   20.6400 N   0  0  0  0  0  0  0  0  0  0  0  0
    5.7660    0.3200   19.5790 C   0  0  0  0  0  0  0  0  0  0  0  0
    4.8750    1.3600   19.8740 C   0  0  0  0  0  0  0  0  0  0  0  0
    4.3490    2.0920   18.8010 C   0  0  0  0  0  0  0  0  0  0  0  0
    4.7380    1.7810   17.4900 C   0  0  0  0  0  0  0  0  0  0  0  0
    5.5670    0.7540   17.1960 N   0  0  0  0  0  0  0  0  0  0  0  0
    6.0730    0.0500   18.2270 C   0  0  0  0  0  0  0  0  0  0  0  0
    8.2200   -0.9540   21.9260 N   0  0  0  0  0  0  0  0  0  0  0  0
    9.5670   -0.8020   22.3040 C   0  0  0  0  0  0  0  0  0  0  0  0
   10.5800   -1.5400   21.6800 C   0  0  0  0  0  0  0  0  0  0  0  0
   11.9250   -1.1790   21.8570 C   0  0  0  0  0  0  0  0  0  0  0  0
   12.2480   -0.0690   22.6540 C   0  0  0  0  0  0  0  0  0  0  0  0
   11.2320    0.6400   23.3200 C   0  0  0  0  0  0  0  0  0  0  0  0
   11.5590    1.8800   24.1280 C   0  0  0  0  0  0  0  0  0  0  0  0
   11.2230    3.1780   23.3570 C   0  0  1  0  0  0  0  0  0  0  0  0
    9.7090    3.4550   23.1830 C   0  0  0  0  0  0  0  0  0  0  0  0
    9.5290    4.9840   23.2340 C   0  0  0  0  0  0  0  0  0  0  0  0
   10.9460    5.5590   23.3490 C   0  0  0  0  0  0  0  0  0  0  0  0
   11.7770    4.4550   24.0010 C   0  0  2  0  0  0  0  0  0  0  0  0
   13.1640    4.6250   23.7270 O   0  0  0  0  0  0  0  0  0  0  0  0
    9.8950    0.2480   23.1630 C   0  0  0  0  0  0  0  0  0  0  0  0
  1  2  2  0
  2  3  1  0
  2 10  1  0
  3  4  1  0
  4  5  2  0
  4  9  1  0
  5  6  1  0
  6  7  2  0
  7  8  1  0
  8  9  2  0
 10 11  1  0
 11 23  1  0
 11 12  2  0
 12 13  1  0
 13 14  2  0
 14 15  1  0
 15 16  1  0
 15 23  2  0
 17 16  1  1
 17 18  1  0
 17 21  1  0
 18 19  1  0
 19 20  1  0
 20 21  1  0
 21 22  1  6
M  END
