WPC1880_minimised.pdb
     RDKit          3D

 23 25  0  0  1  0  0  0  0  0999 V2000
    8.3830   -0.3410   19.6750 O   0  0  0  0  0  0  0  0  0  0  0  0
    7.6080   -0.5450   20.5890 C   0  0  0  0  0  0  0  0  0  0  0  0
    6.2620   -0.3320   20.4840 N   0  0  0  0  0  0  0  0  0  0  0  0
    5.6430    0.3620   19.4180 C   0  0  0  0  0  0  0  0  0  0  0  0
    4.7170    1.3720   19.7110 C   0  0  0  0  0  0  0  0  0  0  0  0
    4.2220    2.1300   18.6420 C   0  0  0  0  0  0  0  0  0  0  0  0
    4.6780    1.8740   17.3410 C   0  0  0  0  0  0  0  0  0  0  0  0
    5.5410    0.8760   17.0470 N   0  0  0  0  0  0  0  0  0  0  0  0
    6.0160    0.1460   18.0750 C   0  0  0  0  0  0  0  0  0  0  0  0
    7.9810   -0.9460   21.8420 N   0  0  0  0  0  0  0  0  0  0  0  0
    9.2960   -0.8080   22.3200 C   0  0  0  0  0  0  0  0  0  0  0  0
   10.3780   -1.3930   21.6500 C   0  0  0  0  0  0  0  0  0  0  0  0
   11.6940   -1.0390   21.9850 C   0  0  0  0  0  0  0  0  0  0  0  0
   11.9200   -0.1100   23.0120 C   0  0  0  0  0  0  0  0  0  0  0  0
   10.8350    0.4090   23.7380 C   0  0  0  0  0  0  0  0  0  0  0  0
   11.0540    1.3760   24.8750 C   0  0  0  0  0  0  0  0  0  0  0  0
   10.2460    2.9960   24.5430 S   0  0  0  0  0  0  0  0  0  0  0  0
   11.5170    3.8790   23.7750 C   0  0  2  0  0  0  0  0  0  0  0  0
   12.6440    3.4170   23.3720 N   0  0  0  0  0  0  0  0  0  0  0  0
   13.5240    4.4860   22.8740 C   0  0  0  0  0  0  0  0  0  0  0  0
   13.1000    5.7480   23.6430 C   0  0  0  0  0  0  0  0  0  0  0  0
   11.2940    5.5880   23.8550 S   0  0  0  0  0  0  0  0  0  0  0  0
    9.5240    0.0600   23.3900 C   0  0  0  0  0  0  0  0  0  0  0  0
  1  2  2  0
  2  3  1  0
  2 10  1  0
  3  4  1  0
  4  5  2  0
  4  9  1  0
  5  6  1  0
  6  7  2  0
  7  8  1  0
  8  9  2  0
 10 11  1  0
 11 23  1  0
 11 12  2  0
 12 13  1  0
 13 14  2  0
 14 15  1  0
 15 16  1  0
 15 23  2  0
 16 17  1  0
 18 17  1  1
 18 19  1  0
 18 22  1  0
 19 20  1  0
 20 21  1  0
 21 22  1  0
M  END
