WPC1472_minimised.pdb
     RDKit          3D

 23 24  0  0  1  0  0  0  0  0999 V2000
    8.9040    6.1200   22.4860 C   0  0  0  0  0  0  0  0  0  0  0  0
    9.9970    5.5200   23.1910 O   0  0  0  0  0  0  0  0  0  0  0  0
    9.9540    4.1690   23.3680 C   0  0  0  0  0  0  0  0  0  0  0  0
    8.9160    3.5280   23.3250 O   0  0  0  0  0  0  0  0  0  0  0  0
   11.2650    3.6790   23.9970 C   0  0  2  0  0  0  0  0  0  0  0  0
   12.4500    3.8890   23.0230 C   0  0  0  0  0  0  0  0  0  0  0  0
   11.1990    2.2270   24.5480 C   0  0  0  0  0  0  0  0  0  0  0  0
   11.0580    1.1130   23.5240 C   0  0  0  0  0  0  0  0  0  0  0  0
   12.1930    0.5150   22.9430 C   0  0  0  0  0  0  0  0  0  0  0  0
   12.0440   -0.5490   22.0370 C   0  0  0  0  0  0  0  0  0  0  0  0
   10.7580   -1.0030   21.7010 C   0  0  0  0  0  0  0  0  0  0  0  0
    9.6290   -0.3990   22.2710 C   0  0  0  0  0  0  0  0  0  0  0  0
    8.3250   -0.7160   21.8490 N   0  0  0  0  0  0  0  0  0  0  0  0
    7.8610   -0.4070   20.6020 C   0  0  0  0  0  0  0  0  0  0  0  0
    8.5770   -0.1860   19.6460 O   0  0  0  0  0  0  0  0  0  0  0  0
    6.4990   -0.2990   20.5470 N   0  0  0  0  0  0  0  0  0  0  0  0
    5.8020    0.3490   19.5000 C   0  0  0  0  0  0  0  0  0  0  0  0
    4.8840    1.3590   19.8140 C   0  0  0  0  0  0  0  0  0  0  0  0
    4.3320    2.0900   18.7540 C   0  0  0  0  0  0  0  0  0  0  0  0
    4.7220    1.8050   17.4370 C   0  0  0  0  0  0  0  0  0  0  0  0
    5.5730    0.8010   17.1250 N   0  0  0  0  0  0  0  0  0  0  0  0
    6.1070    0.1010   18.1450 C   0  0  0  0  0  0  0  0  0  0  0  0
    9.7830    0.6320   23.2000 C   0  0  0  0  0  0  0  0  0  0  0  0
  1  2  1  0
  2  3  1  0
  3  4  2  0
  3  5  1  0
  5  6  1  6
  5  7  1  0
  7  8  1  0
  8 23  2  0
  8  9  1  0
  9 10  2  0
 10 11  1  0
 11 12  2  0
 12 13  1  0
 12 23  1  0
 13 14  1  0
 14 15  2  0
 14 16  1  0
 16 17  1  0
 17 18  2  0
 17 22  1  0
 18 19  1  0
 19 20  2  0
 20 21  1  0
 21 22  2  0
M  END
