WPC1493_minimised.pdb
     RDKit          3D

 23 24  0  0  0  0  0  0  0  0999 V2000
    8.0900    4.1050   22.3680 C   0  0  0  0  0  0  0  0  0  0  0  0
    8.6400    5.5480   22.3180 C   0  0  0  0  0  0  0  0  0  0  0  0
   10.0820    5.7490   22.8450 C   0  0  0  0  0  0  0  0  0  0  0  0
   10.6620    4.6150   23.6740 C   0  0  0  0  0  0  0  0  0  0  0  0
   10.5620    4.5890   24.8840 O   0  0  0  0  0  0  0  0  0  0  0  0
   11.3430    3.6610   22.9560 N   0  0  0  0  0  0  0  0  0  0  0  0
   12.0660    2.5390   23.5650 C   0  0  0  0  0  0  0  0  0  0  0  0
   11.6820    1.2000   22.9660 C   0  0  0  0  0  0  0  0  0  0  0  0
   12.6630    0.2910   22.5310 C   0  0  0  0  0  0  0  0  0  0  0  0
   12.2840   -0.9300   21.9470 C   0  0  0  0  0  0  0  0  0  0  0  0
   10.9230   -1.2390   21.7920 C   0  0  0  0  0  0  0  0  0  0  0  0
    9.9460   -0.3330   22.2280 C   0  0  0  0  0  0  0  0  0  0  0  0
    8.5830   -0.5420   21.9440 N   0  0  0  0  0  0  0  0  0  0  0  0
    8.0380   -0.2460   20.7270 C   0  0  0  0  0  0  0  0  0  0  0  0
    8.7020   -0.0120   19.7360 O   0  0  0  0  0  0  0  0  0  0  0  0
    6.6730   -0.1670   20.7220 N   0  0  0  0  0  0  0  0  0  0  0  0
    5.9290    0.4090   19.6640 C   0  0  0  0  0  0  0  0  0  0  0  0
    5.0110    1.4280   19.9500 C   0  0  0  0  0  0  0  0  0  0  0  0
    4.4190    2.0930   18.8680 C   0  0  0  0  0  0  0  0  0  0  0  0
    4.7760    1.7430   17.5570 C   0  0  0  0  0  0  0  0  0  0  0  0
    5.6230    0.7280   17.2730 N   0  0  0  0  0  0  0  0  0  0  0  0
    6.1900    0.0870   18.3140 C   0  0  0  0  0  0  0  0  0  0  0  0
   10.3250    0.8710   22.8290 C   0  0  0  0  0  0  0  0  0  0  0  0
  1  2  1  0
  2  3  1  0
  3  4  1  0
  4  5  2  0
  4  6  1  0
  6  7  1  0
  7  8  1  0
  8 23  2  0
  8  9  1  0
  9 10  2  0
 10 11  1  0
 11 12  2  0
 12 13  1  0
 12 23  1  0
 13 14  1  0
 14 15  2  0
 14 16  1  0
 16 17  1  0
 17 18  2  0
 17 22  1  0
 18 19  1  0
 19 20  2  0
 20 21  1  0
 21 22  2  0
M  END
