WPC1187_minimised.pdb
     RDKit          3D

 24 26  0  0  0  0  0  0  0  0999 V2000
   12.2910    6.9590   24.5390 O   0  0  0  0  0  0  0  0  0  0  0  0
   12.1250    5.8210   24.1440 C   0  0  0  0  0  0  0  0  0  0  0  0
   10.8410    5.1260   24.3790 C   0  0  0  0  0  0  0  0  0  0  0  0
   10.6710    3.8270   24.0890 C   0  0  0  0  0  0  0  0  0  0  0  0
   11.7260    3.1140   23.5430 N   0  0  0  0  0  0  0  0  0  0  0  0
   12.0630    1.7520   23.9940 C   0  0  0  0  0  0  0  0  0  0  0  0
   11.5670    0.6660   23.0690 C   0  0  0  0  0  0  0  0  0  0  0  0
   12.4710   -0.2110   22.4470 C   0  0  0  0  0  0  0  0  0  0  0  0
   11.9920   -1.2870   21.6870 C   0  0  0  0  0  0  0  0  0  0  0  0
   10.6090   -1.4700   21.5320 C   0  0  0  0  0  0  0  0  0  0  0  0
    9.7100   -0.5640   22.1080 C   0  0  0  0  0  0  0  0  0  0  0  0
    8.3340   -0.6330   21.8240 N   0  0  0  0  0  0  0  0  0  0  0  0
    7.8240   -0.3740   20.5850 C   0  0  0  0  0  0  0  0  0  0  0  0
    8.5020   -0.2970   19.5800 O   0  0  0  0  0  0  0  0  0  0  0  0
    6.4740   -0.1510   20.5870 N   0  0  0  0  0  0  0  0  0  0  0  0
    5.7620    0.4500   19.5210 C   0  0  0  0  0  0  0  0  0  0  0  0
    4.8470    1.4690   19.8110 C   0  0  0  0  0  0  0  0  0  0  0  0
    4.2680    2.1520   18.7330 C   0  0  0  0  0  0  0  0  0  0  0  0
    4.6410    1.8210   17.4220 C   0  0  0  0  0  0  0  0  0  0  0  0
    5.4830    0.8040   17.1340 N   0  0  0  0  0  0  0  0  0  0  0  0
    6.0330    0.1420   18.1700 C   0  0  0  0  0  0  0  0  0  0  0  0
   10.1860    0.4900   22.8890 C   0  0  0  0  0  0  0  0  0  0  0  0
   12.7470    3.7880   22.7300 C   0  0  0  0  0  0  0  0  0  0  0  0
   13.2350    5.0660   23.4250 C   0  0  0  0  0  0  0  0  0  0  0  0
  1  2  2  0
  2  3  1  0
  2 24  1  0
  3  4  2  0
  4  5  1  0
  5 23  1  0
  5  6  1  0
  6  7  1  0
  7 22  1  0
  7  8  2  0
  8  9  1  0
  9 10  2  0
 10 11  1  0
 11 12  1  0
 11 22  2  0
 12 13  1  0
 13 14  2  0
 13 15  1  0
 15 16  1  0
 16 17  2  0
 16 21  1  0
 17 18  1  0
 18 19  2  0
 19 20  1  0
 20 21  2  0
 23 24  1  0
M  END
