WPC1081_minimised.pdb
     RDKit          3D

 18 19  0  0  0  0  0  0  0  0999 V2000
    8.8460    0.5300   20.2980 O   0  0  0  0  0  0  0  0  0  0  0  0
    8.1180    0.4530   21.2660 C   0  0  0  0  0  0  0  0  0  0  0  0
    6.7610    0.3130   21.1500 N   0  0  0  0  0  0  0  0  0  0  0  0
    6.0430    0.6250   19.9680 C   0  0  0  0  0  0  0  0  0  0  0  0
    5.0220    1.5790   20.0490 C   0  0  0  0  0  0  0  0  0  0  0  0
    4.4480    2.0240   18.8540 C   0  0  0  0  0  0  0  0  0  0  0  0
    4.9110    1.5160   17.6330 C   0  0  0  0  0  0  0  0  0  0  0  0
    5.8500    0.5470   17.5410 N   0  0  0  0  0  0  0  0  0  0  0  0
    6.4160    0.1310   18.6960 C   0  0  0  0  0  0  0  0  0  0  0  0
    8.5700    0.5710   22.5510 N   0  0  0  0  0  0  0  0  0  0  0  0
    9.8500    1.0760   22.8610 C   0  0  0  0  0  0  0  0  0  0  0  0
   10.9870    0.2610   22.7510 C   0  0  0  0  0  0  0  0  0  0  0  0
   12.2640    0.8170   22.9300 C   0  0  0  0  0  0  0  0  0  0  0  0
   12.3990    2.1860   23.2100 C   0  0  0  0  0  0  0  0  0  0  0  0
   11.2630    3.0060   23.3240 C   0  0  0  0  0  0  0  0  0  0  0  0
   11.4070    4.4990   23.5660 C   0  0  0  0  0  0  0  0  0  0  0  0
   11.7240    5.1610   22.3490 O   0  0  0  0  0  0  0  0  0  0  0  0
    9.9880    2.4410   23.1510 C   0  0  0  0  0  0  0  0  0  0  0  0
  1  2  2  0
  2 10  1  0
  2  3  1  0
  3  4  1  0
  4  5  2  0
  4  9  1  0
  5  6  1  0
  6  7  2  0
  7  8  1  0
  8  9  2  0
 10 11  1  0
 11 12  2  0
 11 18  1  0
 12 13  1  0
 13 14  2  0
 14 15  1  0
 15 16  1  0
 15 18  2  0
 16 17  1  0
M  END
