WPC1960_minimised.pdb
     RDKit          3D

 24 26  0  0  0  0  0  0  0  0999 V2000
    8.6670   -0.0820   19.8430 O   0  0  0  0  0  0  0  0  0  0  0  0
    7.9590   -0.2490   20.8140 C   0  0  0  0  0  0  0  0  0  0  0  0
    6.5950   -0.2410   20.7270 N   0  0  0  0  0  0  0  0  0  0  0  0
    5.8890    0.3180   19.6390 C   0  0  0  0  0  0  0  0  0  0  0  0
    4.9690    1.3440   19.8880 C   0  0  0  0  0  0  0  0  0  0  0  0
    4.3910    1.9850   18.7850 C   0  0  0  0  0  0  0  0  0  0  0  0
    4.7560    1.5920   17.4890 C   0  0  0  0  0  0  0  0  0  0  0  0
    5.6120    0.5770   17.2380 N   0  0  0  0  0  0  0  0  0  0  0  0
    6.1810   -0.0280   18.3020 C   0  0  0  0  0  0  0  0  0  0  0  0
    8.3990   -0.3930   22.0990 N   0  0  0  0  0  0  0  0  0  0  0  0
    9.6170    0.1230   22.5770 C   0  0  0  0  0  0  0  0  0  0  0  0
   10.8580   -0.3000   22.0790 C   0  0  0  0  0  0  0  0  0  0  0  0
   12.0350    0.3210   22.5320 C   0  0  0  0  0  0  0  0  0  0  0  0
   11.9620    1.3700   23.4650 C   0  0  0  0  0  0  0  0  0  0  0  0
   10.7150    1.8000   23.9590 C   0  0  0  0  0  0  0  0  0  0  0  0
   10.6020    2.9200   24.9890 C   0  0  0  0  0  0  0  0  0  0  0  0
   10.2150    4.5820   24.2840 S   0  0  2  0  0  0  0  0  0  0  0  0
    8.9750    4.1480   23.1890 O   0  0  0  0  0  0  0  0  0  0  0  0
   11.8170    4.7920   23.4770 C   0  0  0  0  0  0  0  0  0  0  0  0
   11.8330    4.9840   22.1310 N   0  0  0  0  0  0  0  0  0  0  0  0
   13.1550    5.1060   21.7560 C   0  0  0  0  0  0  0  0  0  0  0  0
   13.8690    4.9550   22.9150 C   0  0  0  0  0  0  0  0  0  0  0  0
   13.0290    4.7870   23.9850 N   0  0  0  0  0  0  0  0  0  0  0  0
    9.5530    1.1500   23.5240 C   0  0  0  0  0  0  0  0  0  0  0  0
  1  2  2  0
  2  3  1  0
  2 10  1  0
  3  4  1  0
  4  5  2  0
  4  9  1  0
  5  6  1  0
  6  7  2  0
  7  8  1  0
  8  9  2  0
 10 11  1  0
 11 24  1  0
 11 12  2  0
 12 13  1  0
 13 14  2  0
 14 15  1  0
 15 16  1  0
 15 24  2  0
 17 16  1  0
 17 18  1  6
 17 19  1  0
 19 20  1  0
 19 23  2  0
 20 21  1  0
 21 22  2  0
 22 23  1  0
M  END
