WPC1946_minimised.pdb
     RDKit          3D

 21 22  0  0  0  0  0  0  0  0999 V2000
    8.7710    0.4290   20.1700 O   0  0  0  0  0  0  0  0  0  0  0  0
    8.3750   -0.4580   20.8350 C   0  0  0  0  0  0  0  0  0  0  0  0
    7.0410   -0.8520   20.6990 N   0  0  0  0  0  0  0  0  0  0  0  0
    6.2130   -0.1650   19.7800 C   0  0  0  0  0  0  0  0  0  0  0  0
    5.1860    0.6870   20.2050 C   0  0  0  0  0  0  0  0  0  0  0  0
    4.5780    1.5130   19.2220 C   0  0  0  0  0  0  0  0  0  0  0  0
    4.8650    1.2560   17.8400 C   0  0  0  0  0  0  0  0  0  0  0  0
    5.9030    0.4610   17.4320 N   0  0  0  0  0  0  0  0  0  0  0  0
    6.4380   -0.3130   18.3970 C   0  0  0  0  0  0  0  0  0  0  0  0
    9.0720   -1.1360   21.8300 N   0  0  0  0  0  0  0  0  0  0  0  0
   10.3630   -0.6090   22.2510 C   0  0  0  0  0  0  0  0  0  0  0  0
   11.5210   -1.2450   21.7490 C   0  0  0  0  0  0  0  0  0  0  0  0
   12.7840   -0.7840   22.1630 C   0  0  0  0  0  0  0  0  0  0  0  0
   12.8540    0.4670   22.9130 C   0  0  0  0  0  0  0  0  0  0  0  0
   11.7300    1.1350   23.4930 C   0  0  0  0  0  0  0  0  0  0  0  0
   11.6870    2.2950   24.4990 C   0  0  0  0  0  0  0  0  0  0  0  0
   11.2610    4.1630   24.0370 P   0  0  0  0  0  0  0  0  0  0  0  0
   12.4410    5.0520   23.8440 O   0  0  0  0  0  0  0  0  0  0  0  0
   11.4230    3.6620   22.4100 O   0  0  0  0  0  0  0  0  0  0  0  0
   10.5720    3.4410   22.5710 O   0  0  0  0  0  0  0  0  0  0  0  0
   10.4870    0.5290   23.1560 C   0  0  0  0  0  0  0  0  0  0  0  0
  1  2  2  0
  2 10  1  0
  2  3  1  0
  3  4  1  0
  4  5  1  0
  4  9  2  0
  5  6  1  0
  6  7  2  0
  7  8  1  0
  8  9  1  0
 10 11  1  0
 11 12  2  0
 11 21  1  0
 12 13  1  0
 13 14  2  0
 14 15  1  0
 15 16  1  0
 15 21  2  0
 16 17  1  0
 17 18  2  0
 17 19  1  0
 17 20  1  0
M  END
