WPC1782_minimised.pdb
     RDKit          3D

 24 25  0  0  1  0  0  0  0  0999 V2000
    5.8730    6.0750   27.5000 C   0  0  0  0  0  0  0  0  0  0  0  0
    8.3180    5.1300   24.5960 C   0  0  0  0  0  0  0  0  0  0  0  0
    8.3240    5.6070   23.4510 O   0  0  0  0  0  0  0  0  0  0  0  0
    9.6300    4.5570   24.6640 N   0  0  0  0  0  0  0  0  0  0  0  0
   10.4030    4.2480   23.4120 C   0  0  0  0  0  0  0  0  0  0  0  0
   11.8450    3.7620   23.5620 C   0  0  1  0  0  0  0  0  0  0  0  0
   12.7820    4.8870   24.0490 C   0  0  0  0  0  0  0  0  0  0  0  0
   11.8870    2.2700   24.6210 S   0  0  0  0  0  0  0  0  0  0  0  0
   11.4600    0.9640   23.5080 C   0  0  0  0  0  0  0  0  0  0  0  0
   12.4690    0.2330   22.8650 C   0  0  0  0  0  0  0  0  0  0  0  0
   12.1270   -0.8120   21.9920 C   0  0  0  0  0  0  0  0  0  0  0  0
   10.7730   -1.0990   21.7530 C   0  0  0  0  0  0  0  0  0  0  0  0
    9.7680   -0.3440   22.3750 C   0  0  0  0  0  0  0  0  0  0  0  0
    8.4170   -0.5240   22.0250 N   0  0  0  0  0  0  0  0  0  0  0  0
    7.9170   -0.2140   20.7920 C   0  0  0  0  0  0  0  0  0  0  0  0
    8.6090    0.0710   19.8360 O   0  0  0  0  0  0  0  0  0  0  0  0
    6.5510   -0.1950   20.7330 N   0  0  0  0  0  0  0  0  0  0  0  0
    5.8220    0.3750   19.6610 C   0  0  0  0  0  0  0  0  0  0  0  0
    4.8760    1.3720   19.9320 C   0  0  0  0  0  0  0  0  0  0  0  0
    4.3070    2.0450   18.8420 C   0  0  0  0  0  0  0  0  0  0  0  0
    4.7050    1.7140   17.5380 C   0  0  0  0  0  0  0  0  0  0  0  0
    5.5760    0.7170   17.2650 N   0  0  0  0  0  0  0  0  0  0  0  0
    6.1300    0.0770   18.3150 C   0  0  0  0  0  0  0  0  0  0  0  0
   10.1120    0.6760   23.2690 C   0  0  0  0  0  0  0  0  0  0  0  0
  1  2  1  0
  2  3  2  0
  2  4  1  0
  4  5  1  0
  5  6  1  0
  6  7  1  1
  6  8  1  0
  8  9  1  0
  9 24  2  0
  9 10  1  0
 10 11  2  0
 11 12  1  0
 12 13  2  0
 13 14  1  0
 13 24  1  0
 14 15  1  0
 15 16  2  0
 15 17  1  0
 17 18  1  0
 18 19  2  0
 18 23  1  0
 19 20  1  0
 20 21  2  0
 21 22  1  0
 22 23  2  0
M  END
