WPC1764_minimised.pdb
     RDKit          3D

 21 22  0  0  1  0  0  0  0  0999 V2000
   12.4280    5.2040   22.8970 C   0  0  0  0  0  0  0  0  0  0  0  0
   12.2180    3.7040   23.1460 C   0  0  0  0  0  0  0  0  0  0  0  0
   11.0640    3.4260   24.1290 C   0  0  1  0  0  0  0  0  0  0  0  0
    9.7790    3.7080   23.4820 N   0  0  0  0  0  0  0  0  0  0  0  0
   11.1130    1.9760   24.6580 C   0  0  0  0  0  0  0  0  0  0  0  0
   10.9140    0.9020   23.6060 C   0  0  0  0  0  0  0  0  0  0  0  0
   12.0160    0.2740   22.9940 C   0  0  0  0  0  0  0  0  0  0  0  0
   11.8120   -0.7450   22.0500 C   0  0  0  0  0  0  0  0  0  0  0  0
   10.5040   -1.1170   21.7030 C   0  0  0  0  0  0  0  0  0  0  0  0
    9.4090   -0.4660   22.2880 C   0  0  0  0  0  0  0  0  0  0  0  0
    8.1000   -0.6930   21.8330 N   0  0  0  0  0  0  0  0  0  0  0  0
    7.6880   -0.3560   20.5760 C   0  0  0  0  0  0  0  0  0  0  0  0
    8.4410   -0.1250   19.6500 O   0  0  0  0  0  0  0  0  0  0  0  0
    6.3320   -0.2270   20.4800 N   0  0  0  0  0  0  0  0  0  0  0  0
    5.6700    0.4250   19.4170 C   0  0  0  0  0  0  0  0  0  0  0  0
    4.7340    1.4260   19.7070 C   0  0  0  0  0  0  0  0  0  0  0  0
    4.2040    2.1510   18.6330 C   0  0  0  0  0  0  0  0  0  0  0  0
    4.6360    1.8730   17.3280 C   0  0  0  0  0  0  0  0  0  0  0  0
    5.5100    0.8820   17.0380 N   0  0  0  0  0  0  0  0  0  0  0  0
    6.0180    0.1840   18.0720 C   0  0  0  0  0  0  0  0  0  0  0  0
    9.6130    0.5240   23.2520 C   0  0  0  0  0  0  0  0  0  0  0  0
  1  2  1  0
  2  3  1  0
  3  4  1  6
  3  5  1  0
  5  6  1  0
  6 21  2  0
  6  7  1  0
  7  8  2  0
  8  9  1  0
  9 10  2  0
 10 11  1  0
 10 21  1  0
 11 12  1  0
 12 13  2  0
 12 14  1  0
 14 15  1  0
 15 16  2  0
 15 20  1  0
 16 17  1  0
 17 18  2  0
 18 19  1  0
 19 20  2  0
M  END
