WPC1762_minimised.pdb
     RDKit          3D

 24 26  0  0  1  0  0  0  0  0999 V2000
    8.5400    0.0560   19.7220 O   0  0  0  0  0  0  0  0  0  0  0  0
    7.8560   -0.1300   20.7080 C   0  0  0  0  0  0  0  0  0  0  0  0
    6.4970    0.0230   20.6920 N   0  0  0  0  0  0  0  0  0  0  0  0
    5.7750    0.5760   19.6060 C   0  0  0  0  0  0  0  0  0  0  0  0
    4.8360    1.5850   19.8520 C   0  0  0  0  0  0  0  0  0  0  0  0
    4.2650    2.2250   18.7440 C   0  0  0  0  0  0  0  0  0  0  0  0
    4.6630    1.8630   17.4490 C   0  0  0  0  0  0  0  0  0  0  0  0
    5.5220    0.8490   17.2020 N   0  0  0  0  0  0  0  0  0  0  0  0
    6.0680    0.2310   18.2670 C   0  0  0  0  0  0  0  0  0  0  0  0
    8.3800   -0.4710   21.9230 N   0  0  0  0  0  0  0  0  0  0  0  0
    9.7690   -0.5370   22.1500 C   0  0  0  0  0  0  0  0  0  0  0  0
   10.5260   -1.5480   21.5430 C   0  0  0  0  0  0  0  0  0  0  0  0
   11.9280   -1.5010   21.5860 C   0  0  0  0  0  0  0  0  0  0  0  0
   12.5710   -0.4470   22.2450 C   0  0  0  0  0  0  0  0  0  0  0  0
   11.8120    0.5410   22.8810 C   0  0  0  0  0  0  0  0  0  0  0  0
   12.6650    1.8340   23.7280 S   0  0  0  0  0  0  0  0  0  0  0  0
   12.1650    3.3950   22.8920 C   0  0  1  0  0  0  0  0  0  0  0  0
   10.4890    3.9780   23.3900 S   0  0  0  0  0  0  0  0  0  0  0  0
   11.0740    5.6360   23.7200 C   0  0  0  0  0  0  0  0  0  0  0  0
   10.4150    6.5960   24.0440 O   0  0  0  0  0  0  0  0  0  0  0  0
   12.4280    5.6330   23.6610 N   0  0  0  0  0  0  0  0  0  0  0  0
   13.1040    4.5360   23.2600 C   0  0  0  0  0  0  0  0  0  0  0  0
   14.3170    4.5170   23.2440 O   0  0  0  0  0  0  0  0  0  0  0  0
   10.4100    0.4970   22.8430 C   0  0  0  0  0  0  0  0  0  0  0  0
  1  2  2  0
  2  3  1  0
  2 10  1  0
  3  4  1  0
  4  5  2  0
  4  9  1  0
  5  6  1  0
  6  7  2  0
  7  8  1  0
  8  9  2  0
 10 11  1  0
 11 24  1  0
 11 12  2  0
 12 13  1  0
 13 14  2  0
 14 15  1  0
 15 16  1  0
 15 24  2  0
 17 16  1  1
 17 18  1  0
 17 22  1  0
 18 19  1  0
 19 20  2  0
 19 21  1  0
 21 22  1  0
 22 23  2  0
M  END
