WPC1899_minimised.pdb
     RDKit          3D

 24 26  0  0  0  0  0  0  0  0999 V2000
    8.2790    5.4160   22.2530 C   0  0  0  0  0  0  0  0  0  0  0  0
    9.4430    4.8480   22.9960 C   0  0  0  0  0  0  0  0  0  0  0  0
   10.5010    5.5690   23.4530 C   0  0  0  0  0  0  0  0  0  0  0  0
   11.4590    4.6450   24.0100 C   0  0  0  0  0  0  0  0  0  0  0  0
   12.5320    4.9080   24.5220 O   0  0  0  0  0  0  0  0  0  0  0  0
   10.8530    3.4110   23.8640 N   0  0  0  0  0  0  0  0  0  0  0  0
   11.2990    2.1240   24.4050 C   0  0  0  0  0  0  0  0  0  0  0  0
   11.0910    0.9430   23.4760 C   0  0  0  0  0  0  0  0  0  0  0  0
   12.1860    0.2970   22.8750 C   0  0  0  0  0  0  0  0  0  0  0  0
   11.9730   -0.7960   22.0170 C   0  0  0  0  0  0  0  0  0  0  0  0
   10.6630   -1.2180   21.7370 C   0  0  0  0  0  0  0  0  0  0  0  0
    9.5730   -0.5510   22.3130 C   0  0  0  0  0  0  0  0  0  0  0  0
    8.2540   -0.8060   21.8970 N   0  0  0  0  0  0  0  0  0  0  0  0
    7.8130   -0.4860   20.6440 C   0  0  0  0  0  0  0  0  0  0  0  0
    8.5430   -0.3070   19.6900 O   0  0  0  0  0  0  0  0  0  0  0  0
    6.4590   -0.3060   20.5810 N   0  0  0  0  0  0  0  0  0  0  0  0
    5.7960    0.3550   19.5200 C   0  0  0  0  0  0  0  0  0  0  0  0
    4.8930    1.3830   19.8180 C   0  0  0  0  0  0  0  0  0  0  0  0
    4.3640    2.1170   18.7480 C   0  0  0  0  0  0  0  0  0  0  0  0
    4.7660    1.8210   17.4370 C   0  0  0  0  0  0  0  0  0  0  0  0
    5.6060    0.8050   17.1410 N   0  0  0  0  0  0  0  0  0  0  0  0
    6.1130    0.0970   18.1690 C   0  0  0  0  0  0  0  0  0  0  0  0
    9.7880    0.5010   23.2060 C   0  0  0  0  0  0  0  0  0  0  0  0
    9.5690    3.5180   23.2530 O   0  0  0  0  0  0  0  0  0  0  0  0
  1  2  1  0
  2  3  2  0
  2 24  1  0
  3  4  1  0
  4  5  2  0
  4  6  1  0
  6 24  1  0
  6  7  1  0
  7  8  1  0
  8 23  1  0
  8  9  2  0
  9 10  1  0
 10 11  2  0
 11 12  1  0
 12 13  1  0
 12 23  2  0
 13 14  1  0
 14 15  2  0
 14 16  1  0
 16 17  1  0
 17 18  2  0
 17 22  1  0
 18 19  1  0
 19 20  2  0
 20 21  1  0
 21 22  2  0
M  END
