WPC1044_minimised.pdb
     RDKit          3D

 21 22  0  0  1  0  0  0  0  0999 V2000
   12.9160    3.7790   22.5680 C   0  0  0  0  0  0  0  0  0  0  0  0
   12.4470    2.4480   23.1870 C   0  0  0  0  0  0  0  0  0  0  0  0
   13.4980    1.3130   23.0590 C   0  0  0  0  0  0  0  0  0  0  0  0
   13.1700    0.0590   23.9060 C   0  0  2  0  0  0  0  0  0  0  0  0
   14.1300   -0.9590   23.6450 O   0  0  0  0  0  0  0  0  0  0  0  0
   11.7690   -0.4350   23.5890 C   0  0  0  0  0  0  0  0  0  0  0  0
   11.5250   -1.1130   22.3830 C   0  0  0  0  0  0  0  0  0  0  0  0
   10.2100   -1.3210   21.9540 C   0  0  0  0  0  0  0  0  0  0  0  0
    9.1360   -0.8260   22.7060 C   0  0  0  0  0  0  0  0  0  0  0  0
    7.8450   -0.7690   22.1430 N   0  0  0  0  0  0  0  0  0  0  0  0
    7.5700   -0.3050   20.8810 C   0  0  0  0  0  0  0  0  0  0  0  0
    8.4000   -0.0720   20.0220 O   0  0  0  0  0  0  0  0  0  0  0  0
    6.2340   -0.0920   20.6890 N   0  0  0  0  0  0  0  0  0  0  0  0
    5.6570    0.5370   19.5620 C   0  0  0  0  0  0  0  0  0  0  0  0
    4.7010    1.5400   19.7590 C   0  0  0  0  0  0  0  0  0  0  0  0
    4.2240    2.2140   18.6280 C   0  0  0  0  0  0  0  0  0  0  0  0
    4.7190    1.8770   17.3590 C   0  0  0  0  0  0  0  0  0  0  0  0
    5.6070    0.8780   17.1560 N   0  0  0  0  0  0  0  0  0  0  0  0
    6.0780    0.2400   18.2460 C   0  0  0  0  0  0  0  0  0  0  0  0
    9.3700   -0.2460   23.9610 C   0  0  0  0  0  0  0  0  0  0  0  0
   10.6870   -0.0570   24.4080 C   0  0  0  0  0  0  0  0  0  0  0  0
  1  2  1  0
  2  3  1  0
  3  4  1  0
  4  5  1  6
  4  6  1  0
  6 21  2  0
  6  7  1  0
  7  8  2  0
  8  9  1  0
  9 10  1  0
  9 20  2  0
 10 11  1  0
 11 12  2  0
 11 13  1  0
 13 14  1  0
 14 15  2  0
 14 19  1  0
 15 16  1  0
 16 17  2  0
 17 18  1  0
 18 19  2  0
 20 21  1  0
M  END
