WPC1654_minimised.pdb
     RDKit          3D

 22 23  0  0  1  0  0  0  0  0999 V2000
    8.5870    0.2040   19.7340 O   0  0  0  0  0  0  0  0  0  0  0  0
    7.8860   -0.0350   20.6950 C   0  0  0  0  0  0  0  0  0  0  0  0
    6.5230   -0.1110   20.6130 N   0  0  0  0  0  0  0  0  0  0  0  0
    5.7950    0.4360   19.5310 C   0  0  0  0  0  0  0  0  0  0  0  0
    4.8440    1.4310   19.7920 C   0  0  0  0  0  0  0  0  0  0  0  0
    4.2820    2.0970   18.6960 C   0  0  0  0  0  0  0  0  0  0  0  0
    4.6980    1.7700   17.3980 C   0  0  0  0  0  0  0  0  0  0  0  0
    5.5810    0.7800   17.1370 N   0  0  0  0  0  0  0  0  0  0  0  0
    6.1220    0.1370   18.1910 C   0  0  0  0  0  0  0  0  0  0  0  0
    8.3590   -0.1410   21.9690 N   0  0  0  0  0  0  0  0  0  0  0  0
    9.6100    0.3650   22.3690 C   0  0  0  0  0  0  0  0  0  0  0  0
   10.8100   -0.2060   21.9150 C   0  0  0  0  0  0  0  0  0  0  0  0
   12.0380    0.3660   22.2870 C   0  0  0  0  0  0  0  0  0  0  0  0
   12.0620    1.5080   23.1050 C   0  0  0  0  0  0  0  0  0  0  0  0
   10.8580    2.0840   23.5530 C   0  0  0  0  0  0  0  0  0  0  0  0
   10.8640    3.2370   24.5390 C   0  0  0  0  0  0  0  0  0  0  0  0
   11.0120    4.6590   23.9570 C   0  0  2  0  0  0  0  0  0  0  0  0
    9.4990    5.3250   23.1010 S   0  0  0  0  0  0  0  0  0  0  0  0
   12.3430    4.8330   23.2120 C   0  0  0  0  0  0  0  0  0  0  0  0
   13.4020    4.8470   23.8060 O   0  0  0  0  0  0  0  0  0  0  0  0
   12.2960    4.9730   21.8780 O   0  0  0  0  0  0  0  0  0  0  0  0
    9.6360    1.5050   23.1830 C   0  0  0  0  0  0  0  0  0  0  0  0
  1  2  2  0
  2 10  1  0
  2  3  1  0
  3  4  1  0
  4  5  2  0
  4  9  1  0
  5  6  1  0
  6  7  2  0
  7  8  1  0
  8  9  2  0
 10 11  1  0
 11 12  2  0
 11 22  1  0
 12 13  1  0
 13 14  2  0
 14 15  1  0
 15 16  1  0
 15 22  2  0
 17 16  1  6
 17 19  1  0
 17 18  1  0
 19 20  2  0
 19 21  1  0
M  END
