WPC1292_minimised.pdb
     RDKit          3D

 24 26  0  0  1  0  0  0  0  0999 V2000
   12.2260    4.9840   21.4450 N   0  0  0  0  0  0  0  0  0  0  0  0
   11.9270    4.1890   22.3810 C   0  0  0  0  0  0  0  0  0  0  0  0
   10.6370    3.7410   22.5530 N   0  0  0  0  0  0  0  0  0  0  0  0
   10.3190    2.9800   23.6300 C   0  0  0  0  0  0  0  0  0  0  0  0
    9.1940    2.5730   23.8380 O   0  0  0  0  0  0  0  0  0  0  0  0
   11.5210    2.7500   24.5350 C   0  0  1  0  0  0  0  0  0  0  0  0
   11.8240    1.2670   24.8440 C   0  0  0  0  0  0  0  0  0  0  0  0
   11.8990    0.4070   23.6070 C   0  0  0  0  0  0  0  0  0  0  0  0
   13.1250    0.1640   22.9630 C   0  0  0  0  0  0  0  0  0  0  0  0
   13.1620   -0.6340   21.8110 C   0  0  0  0  0  0  0  0  0  0  0  0
   11.9680   -1.1390   21.2770 C   0  0  0  0  0  0  0  0  0  0  0  0
   10.7440   -0.8690   21.9070 C   0  0  0  0  0  0  0  0  0  0  0  0
    9.5130   -1.1980   21.3150 N   0  0  0  0  0  0  0  0  0  0  0  0
    8.7060   -0.2680   20.7170 C   0  0  0  0  0  0  0  0  0  0  0  0
    9.0330    0.8900   20.5400 O   0  0  0  0  0  0  0  0  0  0  0  0
    7.5020   -0.7670   20.3040 N   0  0  0  0  0  0  0  0  0  0  0  0
    6.5770   -0.0610   19.4990 C   0  0  0  0  0  0  0  0  0  0  0  0
    5.8710    1.0340   20.0170 C   0  0  0  0  0  0  0  0  0  0  0  0
    5.0210    1.7360   19.1500 C   0  0  0  0  0  0  0  0  0  0  0  0
    4.9350    1.3510   17.8020 C   0  0  0  0  0  0  0  0  0  0  0  0
    5.6020    0.2850   17.3050 N   0  0  0  0  0  0  0  0  0  0  0  0
    6.4080   -0.3950   18.1430 C   0  0  0  0  0  0  0  0  0  0  0  0
   10.7160   -0.1260   23.0860 C   0  0  0  0  0  0  0  0  0  0  0  0
   12.9100    3.5500   23.6340 S   0  0  0  0  0  0  0  0  0  0  0  0
  1  2  1  0
  2  3  1  0
  2 24  2  0
  3  4  1  0
  4  5  2  0
  4  6  1  0
  6 24  1  0
  6  7  1  6
  7  8  1  0
  8 23  1  0
  8  9  2  0
  9 10  1  0
 10 11  2  0
 11 12  1  0
 12 13  1  0
 12 23  2  0
 13 14  1  0
 14 15  2  0
 14 16  1  0
 16 17  1  0
 17 18  2  0
 17 22  1  0
 18 19  1  0
 19 20  2  0
 20 21  1  0
 21 22  2  0
M  END
