WPC1459_minimised.pdb
     RDKit          3D

 23 24  0  0  1  0  0  0  0  0999 V2000
    9.4400    0.7790   20.7970 O   0  0  0  0  0  0  0  0  0  0  0  0
    8.8500   -0.0880   21.4040 C   0  0  0  0  0  0  0  0  0  0  0  0
    7.5810   -0.5210   21.0690 N   0  0  0  0  0  0  0  0  0  0  0  0
    6.7970    0.0250   20.0160 C   0  0  0  0  0  0  0  0  0  0  0  0
    5.6220    0.7480   20.3000 C   0  0  0  0  0  0  0  0  0  0  0  0
    4.9360    1.3730   19.2440 C   0  0  0  0  0  0  0  0  0  0  0  0
    5.4050    1.2110   17.9360 C   0  0  0  0  0  0  0  0  0  0  0  0
    6.5280    0.5120   17.6560 N   0  0  0  0  0  0  0  0  0  0  0  0
    7.2180   -0.0370   18.6750 C   0  0  0  0  0  0  0  0  0  0  0  0
    9.4560   -0.7580   22.4510 N   0  0  0  0  0  0  0  0  0  0  0  0
   10.8280   -0.5630   22.7430 C   0  0  0  0  0  0  0  0  0  0  0  0
   11.7940   -1.3060   22.0490 C   0  0  0  0  0  0  0  0  0  0  0  0
   13.1650   -1.1790   22.3100 C   0  0  0  0  0  0  0  0  0  0  0  0
   13.5440   -0.1230   23.1550 C   0  0  0  0  0  0  0  0  0  0  0  0
   12.6210    0.8800   23.5150 C   0  0  1  0  0  0  0  0  0  0  0  0
   12.8950    2.1810   22.3800 S   0  0  0  0  0  0  0  0  0  0  0  0
   12.9220    3.9240   22.9730 C   0  0  0  0  0  0  0  0  0  0  0  0
   11.6570    4.5970   22.4980 C   0  0  0  0  0  0  0  0  0  0  0  0
   10.7970    4.5830   23.9260 P   0  0  0  0  0  0  0  0  0  0  0  0
   10.1150    5.8350   24.6170 O   0  0  0  0  0  0  0  0  0  0  0  0
   11.3670    5.7460   24.7220 O   0  0  0  0  0  0  0  0  0  0  0  0
   10.4430    3.5200   24.9960 O   0  0  0  0  0  0  0  0  0  0  0  0
   11.2570    0.5380   23.5200 C   0  0  0  0  0  0  0  0  0  0  0  0
  1  2  2  0
  2 10  1  0
  2  3  1  0
  3  4  1  0
  4  5  2  0
  4  9  1  0
  5  6  1  0
  6  7  2  0
  7  8  1  0
  8  9  2  0
 10 11  1  0
 11 12  2  0
 11 23  1  0
 12 13  1  0
 13 14  2  0
 14 15  1  0
 15 16  1  6
 15 23  1  0
 16 17  1  0
 17 18  1  0
 18 19  1  0
 19 20  2  0
 19 21  1  0
 19 22  1  0
M  END
