WPC1272_minimised.pdb
     RDKit          3D

 23 24  0  0  1  0  0  0  0  0999 V2000
   12.1110    6.7900   25.2440 C   0  0  0  0  0  0  0  0  0  0  0  0
   11.3860    6.2650   24.4450 C   0  0  0  0  0  0  0  0  0  0  0  0
   10.5630    5.5440   23.4580 C   0  0  0  0  0  0  0  0  0  0  0  0
   10.4970    4.0890   23.7060 N   0  0  0  0  0  0  0  0  0  0  0  0
   11.7850    3.4320   23.9920 C   0  0  2  0  0  0  0  0  0  0  0  0
   12.7940    3.6100   22.8430 C   0  0  0  0  0  0  0  0  0  0  0  0
   11.6200    1.9590   24.4270 C   0  0  0  0  0  0  0  0  0  0  0  0
   11.2230    0.9650   23.3570 C   0  0  0  0  0  0  0  0  0  0  0  0
   12.2020    0.1680   22.7350 C   0  0  0  0  0  0  0  0  0  0  0  0
   11.8240   -0.8510   21.8480 C   0  0  0  0  0  0  0  0  0  0  0  0
   10.4650   -1.0570   21.5730 C   0  0  0  0  0  0  0  0  0  0  0  0
    9.4930   -0.2360   22.1610 C   0  0  0  0  0  0  0  0  0  0  0  0
    8.1420   -0.3460   21.7890 N   0  0  0  0  0  0  0  0  0  0  0  0
    7.6980   -0.1420   20.5160 C   0  0  0  0  0  0  0  0  0  0  0  0
    8.4270   -0.0700   19.5460 O   0  0  0  0  0  0  0  0  0  0  0  0
    6.3470    0.0450   20.4480 N   0  0  0  0  0  0  0  0  0  0  0  0
    5.6690    0.6250   19.3530 C   0  0  0  0  0  0  0  0  0  0  0  0
    4.7200    1.6240   19.6010 C   0  0  0  0  0  0  0  0  0  0  0  0
    4.1750    2.2910   18.4980 C   0  0  0  0  0  0  0  0  0  0  0  0
    4.6170    1.9700   17.2070 C   0  0  0  0  0  0  0  0  0  0  0  0
    5.4940    0.9730   16.9560 N   0  0  0  0  0  0  0  0  0  0  0  0
    6.0090    0.3220   18.0170 C   0  0  0  0  0  0  0  0  0  0  0  0
    9.8680    0.7640   23.0630 C   0  0  0  0  0  0  0  0  0  0  0  0
  1  2  3  0
  2  3  1  0
  3  4  1  0
  4  5  1  0
  5  6  1  6
  5  7  1  0
  7  8  1  0
  8 23  2  0
  8  9  1  0
  9 10  2  0
 10 11  1  0
 11 12  2  0
 12 13  1  0
 12 23  1  0
 13 14  1  0
 14 15  2  0
 14 16  1  0
 16 17  1  0
 17 18  2  0
 17 22  1  0
 18 19  1  0
 19 20  2  0
 20 21  1  0
 21 22  2  0
M  END
