WPC1468_minimised.pdb
     RDKit          3D

 24 25  0  0  0  0  0  0  0  0999 V2000
    8.0580    3.3610   22.1260 C   0  0  0  0  0  0  0  0  0  0  0  0
    8.1920    4.8950   22.0380 C   0  0  0  0  0  0  0  0  0  0  0  0
    9.1450    5.5330   23.0820 C   0  0  0  0  0  0  0  0  0  0  0  0
   10.6540    5.2700   22.8990 C   0  0  0  0  0  0  0  0  0  0  0  0
   11.0070    3.8620   23.0840 N   0  0  0  0  0  0  0  0  0  0  0  0
   12.2480    3.4400   23.4840 C   0  0  0  0  0  0  0  0  0  0  0  0
   13.1690    4.2230   23.6160 O   0  0  0  0  0  0  0  0  0  0  0  0
   12.3420    1.9880   23.9540 C   0  0  0  0  0  0  0  0  0  0  0  0
   11.7450    0.9120   23.0690 C   0  0  0  0  0  0  0  0  0  0  0  0
   12.5910    0.0330   22.3720 C   0  0  0  0  0  0  0  0  0  0  0  0
   12.0500   -1.0310   21.6370 C   0  0  0  0  0  0  0  0  0  0  0  0
   10.6590   -1.1970   21.5740 C   0  0  0  0  0  0  0  0  0  0  0  0
    9.8120   -0.3030   22.2420 C   0  0  0  0  0  0  0  0  0  0  0  0
    8.4260   -0.3410   22.0000 N   0  0  0  0  0  0  0  0  0  0  0  0
    7.8900   -0.0080   20.7870 C   0  0  0  0  0  0  0  0  0  0  0  0
    8.5640    0.2470   19.8090 O   0  0  0  0  0  0  0  0  0  0  0  0
    6.5240    0.0620   20.7590 N   0  0  0  0  0  0  0  0  0  0  0  0
    5.7920    0.5900   19.6680 C   0  0  0  0  0  0  0  0  0  0  0  0
    4.8510    1.6000   19.8990 C   0  0  0  0  0  0  0  0  0  0  0  0
    4.2780    2.2220   18.7820 C   0  0  0  0  0  0  0  0  0  0  0  0
    4.6720    1.8350   17.4920 C   0  0  0  0  0  0  0  0  0  0  0  0
    5.5380    0.8230   17.2600 N   0  0  0  0  0  0  0  0  0  0  0  0
    6.0910    0.2270   18.3350 C   0  0  0  0  0  0  0  0  0  0  0  0
   10.3540    0.7220   23.0260 C   0  0  0  0  0  0  0  0  0  0  0  0
  1  2  1  0
  2  3  1  0
  3  4  1  0
  4  5  1  0
  5  6  1  0
  6  7  2  0
  6  8  1  0
  8  9  1  0
  9 24  2  0
  9 10  1  0
 10 11  2  0
 11 12  1  0
 12 13  2  0
 13 14  1  0
 13 24  1  0
 14 15  1  0
 15 16  2  0
 15 17  1  0
 17 18  1  0
 18 19  2  0
 18 23  1  0
 19 20  1  0
 20 21  2  0
 21 22  1  0
 22 23  2  0
M  END
