WPC1719_minimised.pdb
     RDKit          3D

 23 24  0  0  0  0  0  0  0  0999 V2000
   12.3920    7.2610   25.4810 N   0  0  0  0  0  0  0  0  0  0  0  0
   11.9970    6.1400   24.8250 C   0  0  0  0  0  0  0  0  0  0  0  0
   10.9670    5.5810   25.1320 O   0  0  0  0  0  0  0  0  0  0  0  0
   12.8980    5.7130   23.8710 N   0  0  0  0  0  0  0  0  0  0  0  0
   13.1480    4.3890   23.6190 N   0  0  0  0  0  0  0  0  0  0  0  0
   12.2520    3.5340   23.2630 C   0  0  0  0  0  0  0  0  0  0  0  0
   12.5010    2.0860   23.6280 C   0  0  0  0  0  0  0  0  0  0  0  0
   11.8110    1.0140   22.8140 C   0  0  0  0  0  0  0  0  0  0  0  0
   12.5770   -0.0280   22.2630 C   0  0  0  0  0  0  0  0  0  0  0  0
   11.9470   -1.1090   21.6330 C   0  0  0  0  0  0  0  0  0  0  0  0
   10.5490   -1.1430   21.5430 C   0  0  0  0  0  0  0  0  0  0  0  0
    9.7830   -0.0900   22.0630 C   0  0  0  0  0  0  0  0  0  0  0  0
    8.3900   -0.0680   21.8590 N   0  0  0  0  0  0  0  0  0  0  0  0
    7.8180    0.0340   20.6230 C   0  0  0  0  0  0  0  0  0  0  0  0
    8.4580   -0.0030   19.5910 O   0  0  0  0  0  0  0  0  0  0  0  0
    6.4650    0.2310   20.6470 N   0  0  0  0  0  0  0  0  0  0  0  0
    5.7060    0.7120   19.5520 C   0  0  0  0  0  0  0  0  0  0  0  0
    4.7640    1.7210   19.7810 C   0  0  0  0  0  0  0  0  0  0  0  0
    4.1520    2.3060   18.6650 C   0  0  0  0  0  0  0  0  0  0  0  0
    4.5220    1.8950   17.3770 C   0  0  0  0  0  0  0  0  0  0  0  0
    5.3800    0.8760   17.1480 N   0  0  0  0  0  0  0  0  0  0  0  0
    5.9590    0.3050   18.2220 C   0  0  0  0  0  0  0  0  0  0  0  0
   10.4110    0.9830   22.7110 C   0  0  0  0  0  0  0  0  0  0  0  0
  1  2  1  0
  2  3  2  0
  2  4  1  0
  4  5  1  0
  5  6  1  0
  6  7  1  0
  7  8  1  0
  8 23  2  0
  8  9  1  0
  9 10  2  0
 10 11  1  0
 11 12  2  0
 12 13  1  0
 12 23  1  0
 13 14  1  0
 14 15  2  0
 14 16  1  0
 16 17  1  0
 17 18  2  0
 17 22  1  0
 18 19  1  0
 19 20  2  0
 20 21  1  0
 21 22  2  0
M  END
