WPC1601_minimised.pdb
     RDKit          3D

 23 24  0  0  0  0  0  0  0  0999 V2000
   13.8940    5.1920   21.4100 N   0  0  0  0  0  0  0  0  0  0  0  0
   13.6740    5.7530   22.7020 N   0  0  0  0  0  0  0  0  0  0  0  0
   12.5430    5.5770   23.4730 C   0  0  0  0  0  0  0  0  0  0  0  0
   12.4010    6.2930   24.9660 S   0  0  0  0  0  0  0  0  0  0  0  0
   11.5970    4.7620   22.9130 N   0  0  0  0  0  0  0  0  0  0  0  0
   10.3970    4.2980   23.6140 C   0  0  0  0  0  0  0  0  0  0  0  0
   10.7060    3.0320   24.4390 C   0  0  0  0  0  0  0  0  0  0  0  0
   10.7790    1.7710   23.5970 C   0  0  0  0  0  0  0  0  0  0  0  0
   12.0090    1.2140   23.2020 C   0  0  0  0  0  0  0  0  0  0  0  0
   12.0350    0.0570   22.4020 C   0  0  0  0  0  0  0  0  0  0  0  0
   10.8300   -0.5410   21.9920 C   0  0  0  0  0  0  0  0  0  0  0  0
    9.6060    0.0120   22.3990 C   0  0  0  0  0  0  0  0  0  0  0  0
    8.3740   -0.4870   21.9370 N   0  0  0  0  0  0  0  0  0  0  0  0
    7.9140   -0.2460   20.6760 C   0  0  0  0  0  0  0  0  0  0  0  0
    8.6300    0.0600   19.7430 O   0  0  0  0  0  0  0  0  0  0  0  0
    6.5510   -0.2830   20.5780 N   0  0  0  0  0  0  0  0  0  0  0  0
    5.8370    0.3260   19.5180 C   0  0  0  0  0  0  0  0  0  0  0  0
    4.8920    1.3160   19.8160 C   0  0  0  0  0  0  0  0  0  0  0  0
    4.3350    2.0290   18.7460 C   0  0  0  0  0  0  0  0  0  0  0  0
    4.7490    1.7480   17.4360 C   0  0  0  0  0  0  0  0  0  0  0  0
    5.6290    0.7650   17.1390 N   0  0  0  0  0  0  0  0  0  0  0  0
    6.1660    0.0810   18.1690 C   0  0  0  0  0  0  0  0  0  0  0  0
    9.5840    1.1570   23.2010 C   0  0  0  0  0  0  0  0  0  0  0  0
  1  2  1  0
  2  3  1  0
  3  4  2  0
  3  5  1  0
  5  6  1  0
  6  7  1  0
  7  8  1  0
  8 23  2  0
  8  9  1  0
  9 10  2  0
 10 11  1  0
 11 12  2  0
 12 13  1  0
 12 23  1  0
 13 14  1  0
 14 15  2  0
 14 16  1  0
 16 17  1  0
 17 18  2  0
 17 22  1  0
 18 19  1  0
 19 20  2  0
 20 21  1  0
 21 22  2  0
M  END
