WPC1858_minimised.pdb
     RDKit          3D

 24 26  0  0  0  0  0  0  0  0999 V2000
    8.6930   -0.0710   19.8930 O   0  0  0  0  0  0  0  0  0  0  0  0
    8.0050   -0.2960   20.8670 C   0  0  0  0  0  0  0  0  0  0  0  0
    6.6410   -0.3190   20.7910 N   0  0  0  0  0  0  0  0  0  0  0  0
    5.9150    0.2250   19.7060 C   0  0  0  0  0  0  0  0  0  0  0  0
    4.9890    1.2460   19.9550 C   0  0  0  0  0  0  0  0  0  0  0  0
    4.3820    1.8610   18.8530 C   0  0  0  0  0  0  0  0  0  0  0  0
    4.7280    1.4510   17.5570 C   0  0  0  0  0  0  0  0  0  0  0  0
    5.5940    0.4440   17.3060 N   0  0  0  0  0  0  0  0  0  0  0  0
    6.1890   -0.1360   18.3700 C   0  0  0  0  0  0  0  0  0  0  0  0
    8.4730   -0.4860   22.1360 N   0  0  0  0  0  0  0  0  0  0  0  0
    9.6830    0.0550   22.6080 C   0  0  0  0  0  0  0  0  0  0  0  0
   10.9320   -0.3490   22.1140 C   0  0  0  0  0  0  0  0  0  0  0  0
   12.0960    0.3100   22.5460 C   0  0  0  0  0  0  0  0  0  0  0  0
   12.0010    1.3860   23.4470 C   0  0  0  0  0  0  0  0  0  0  0  0
   10.7460    1.8000   23.9340 C   0  0  0  0  0  0  0  0  0  0  0  0
   10.6010    2.9760   24.8970 C   0  0  0  0  0  0  0  0  0  0  0  0
   10.2200    4.5930   24.0810 S   0  0  2  0  0  0  0  0  0  0  0  0
    9.0640    4.0170   22.9620 O   0  0  0  0  0  0  0  0  0  0  0  0
   11.8670    4.7460   23.3380 C   0  0  0  0  0  0  0  0  0  0  0  0
   12.1290    4.6700   22.0060 C   0  0  0  0  0  0  0  0  0  0  0  0
   13.4990    4.7370   21.9180 N   0  0  0  0  0  0  0  0  0  0  0  0
   14.0470    4.8550   23.1470 N   0  0  0  0  0  0  0  0  0  0  0  0
   13.0600    4.8910   23.9960 N   0  0  0  0  0  0  0  0  0  0  0  0
    9.5990    1.1010   23.5310 C   0  0  0  0  0  0  0  0  0  0  0  0
  1  2  2  0
  2  3  1  0
  2 10  1  0
  3  4  1  0
  4  5  2  0
  4  9  1  0
  5  6  1  0
  6  7  2  0
  7  8  1  0
  8  9  2  0
 10 11  1  0
 11 24  1  0
 11 12  2  0
 12 13  1  0
 13 14  2  0
 14 15  1  0
 15 16  1  0
 15 24  2  0
 17 16  1  0
 17 18  1  6
 17 19  1  0
 19 20  2  0
 19 23  1  0
 20 21  1  0
 21 22  1  0
 22 23  2  0
M  END
