WPC1195_minimised.pdb
     RDKit          3D

 22 23  0  0  0  0  0  0  0  0999 V2000
    8.5750    0.0620   19.7270 O   0  0  0  0  0  0  0  0  0  0  0  0
    7.8350   -0.2340   20.6430 C   0  0  0  0  0  0  0  0  0  0  0  0
    6.4730   -0.2310   20.5260 N   0  0  0  0  0  0  0  0  0  0  0  0
    5.7850    0.3940   19.4590 C   0  0  0  0  0  0  0  0  0  0  0  0
    4.8380    1.3840   19.7470 C   0  0  0  0  0  0  0  0  0  0  0  0
    4.2990    2.1030   18.6710 C   0  0  0  0  0  0  0  0  0  0  0  0
    4.7360    1.8300   17.3670 C   0  0  0  0  0  0  0  0  0  0  0  0
    5.6200    0.8480   17.0800 N   0  0  0  0  0  0  0  0  0  0  0  0
    6.1360    0.1550   18.1140 C   0  0  0  0  0  0  0  0  0  0  0  0
    8.2630   -0.5070   21.9090 N   0  0  0  0  0  0  0  0  0  0  0  0
    9.5010   -0.0550   22.3980 C   0  0  0  0  0  0  0  0  0  0  0  0
   10.7170   -0.5910   21.9480 C   0  0  0  0  0  0  0  0  0  0  0  0
   11.9300   -0.0200   22.3710 C   0  0  0  0  0  0  0  0  0  0  0  0
   11.9190    1.0930   23.2320 C   0  0  0  0  0  0  0  0  0  0  0  0
   10.6970    1.6310   23.6740 C   0  0  0  0  0  0  0  0  0  0  0  0
   10.6430    2.8570   24.5650 C   0  0  0  0  0  0  0  0  0  0  0  0
   10.2450    4.1350   23.8020 C   0  0  0  0  0  0  0  0  0  0  0  0
   11.3270    4.5490   22.9050 N   0  0  0  0  0  0  0  0  0  0  0  0
   12.3720    5.3550   23.2920 C   0  0  0  0  0  0  0  0  0  0  0  0
   12.4460    6.1500   24.7580 S   0  0  0  0  0  0  0  0  0  0  0  0
   13.6540    5.4910   22.0490 S   0  0  0  0  0  0  0  0  0  0  0  0
    9.4930    1.0430   23.2630 C   0  0  0  0  0  0  0  0  0  0  0  0
  1  2  2  0
  2 10  1  0
  2  3  1  0
  3  4  1  0
  4  5  2  0
  4  9  1  0
  5  6  1  0
  6  7  2  0
  7  8  1  0
  8  9  2  0
 10 11  1  0
 11 12  2  0
 11 22  1  0
 12 13  1  0
 13 14  2  0
 14 15  1  0
 15 16  1  0
 15 22  2  0
 16 17  1  0
 17 18  1  0
 18 19  1  0
 19 20  2  0
 19 21  1  0
M  END
