WPC1010_minimised.pdb
     RDKit          3D

 24 25  0  0  0  0  0  0  0  0999 V2000
   12.7060    7.2070   25.4650 C   0  0  0  0  0  0  0  0  0  0  0  0
   12.0200    6.1150   24.6590 C   0  0  0  0  0  0  0  0  0  0  0  0
   10.8140    6.0890   24.4860 O   0  0  0  0  0  0  0  0  0  0  0  0
   12.9070    5.0720   24.0910 C   0  0  0  0  0  0  0  0  0  0  0  0
   12.4640    3.9830   23.4370 C   0  0  0  0  0  0  0  0  0  0  0  0
   11.1690    3.7810   23.2240 O   0  0  0  0  0  0  0  0  0  0  0  0
   13.3980    2.9570   22.8180 C   0  0  0  0  0  0  0  0  0  0  0  0
   13.3740    1.5300   23.4320 C   0  0  0  0  0  0  0  0  0  0  0  0
   12.0910    0.7710   23.1650 C   0  0  0  0  0  0  0  0  0  0  0  0
   11.9790   -0.0290   22.0190 C   0  0  0  0  0  0  0  0  0  0  0  0
   10.7450   -0.6060   21.6950 C   0  0  0  0  0  0  0  0  0  0  0  0
    9.6150   -0.3580   22.4900 C   0  0  0  0  0  0  0  0  0  0  0  0
    8.3190   -0.6660   22.0220 N   0  0  0  0  0  0  0  0  0  0  0  0
    7.8670   -0.3410   20.7690 C   0  0  0  0  0  0  0  0  0  0  0  0
    8.5830   -0.0610   19.8270 O   0  0  0  0  0  0  0  0  0  0  0  0
    6.5030   -0.2910   20.6800 N   0  0  0  0  0  0  0  0  0  0  0  0
    5.8160    0.3250   19.6050 C   0  0  0  0  0  0  0  0  0  0  0  0
    4.8930    1.3420   19.8800 C   0  0  0  0  0  0  0  0  0  0  0  0
    4.3510    2.0420   18.7940 C   0  0  0  0  0  0  0  0  0  0  0  0
    4.7560    1.7210   17.4900 C   0  0  0  0  0  0  0  0  0  0  0  0
    5.6120    0.7110   17.2130 N   0  0  0  0  0  0  0  0  0  0  0  0
    6.1390    0.0440   18.2590 C   0  0  0  0  0  0  0  0  0  0  0  0
    9.7530    0.3490   23.6920 C   0  0  0  0  0  0  0  0  0  0  0  0
   10.9950    0.9010   24.0370 C   0  0  0  0  0  0  0  0  0  0  0  0
  1  2  1  0
  2  3  2  0
  2  4  1  0
  4  5  2  0
  5  6  1  0
  5  7  1  0
  7  8  1  0
  8  9  1  0
  9 24  2  0
  9 10  1  0
 10 11  2  0
 11 12  1  0
 12 13  1  0
 12 23  2  0
 13 14  1  0
 14 15  2  0
 14 16  1  0
 16 17  1  0
 17 18  2  0
 17 22  1  0
 18 19  1  0
 19 20  2  0
 20 21  1  0
 21 22  2  0
 23 24  1  0
M  END
