WPC1386_minimised.pdb
     RDKit          3D

 23 24  0  0  0  0  0  0  0  0999 V2000
    8.4540    4.9580   22.5340 C   0  0  0  0  0  0  0  0  0  0  0  0
    9.7460    6.0360   23.3030 S   0  0  0  0  0  0  0  0  0  0  0  0
   11.2620    5.0430   23.3370 C   0  0  0  0  0  0  0  0  0  0  0  0
   12.7400    5.6370   23.8070 S   0  0  0  0  0  0  0  0  0  0  0  0
   11.1030    3.7000   23.1220 N   0  0  0  0  0  0  0  0  0  0  0  0
   10.3040    2.8970   24.0480 C   0  0  0  0  0  0  0  0  0  0  0  0
   11.1610    1.7670   24.6390 C   0  0  0  0  0  0  0  0  0  0  0  0
   11.4560    0.6900   23.6240 C   0  0  0  0  0  0  0  0  0  0  0  0
   12.7520    0.4590   23.1310 C   0  0  0  0  0  0  0  0  0  0  0  0
   12.9490   -0.4760   22.1010 C   0  0  0  0  0  0  0  0  0  0  0  0
   11.8460   -1.1410   21.5380 C   0  0  0  0  0  0  0  0  0  0  0  0
   10.5570   -0.8970   22.0320 C   0  0  0  0  0  0  0  0  0  0  0  0
    9.3970   -1.3180   21.3570 N   0  0  0  0  0  0  0  0  0  0  0  0
    8.5970   -0.4210   20.6990 C   0  0  0  0  0  0  0  0  0  0  0  0
    8.9220    0.7330   20.5000 O   0  0  0  0  0  0  0  0  0  0  0  0
    7.3870   -0.9080   20.2920 N   0  0  0  0  0  0  0  0  0  0  0  0
    6.4810   -0.1700   19.4920 C   0  0  0  0  0  0  0  0  0  0  0  0
    5.7810    0.9180   20.0340 C   0  0  0  0  0  0  0  0  0  0  0  0
    4.9930    1.6910   19.1670 C   0  0  0  0  0  0  0  0  0  0  0  0
    4.9630    1.3820   17.7980 C   0  0  0  0  0  0  0  0  0  0  0  0
    5.6200    0.3210   17.2780 N   0  0  0  0  0  0  0  0  0  0  0  0
    6.3640   -0.4290   18.1140 C   0  0  0  0  0  0  0  0  0  0  0  0
   10.3750   -0.0190   23.0990 C   0  0  0  0  0  0  0  0  0  0  0  0
  1  2  1  0
  2  3  1  0
  3  4  2  0
  3  5  1  0
  5  6  1  0
  6  7  1  0
  7  8  1  0
  8 23  2  0
  8  9  1  0
  9 10  2  0
 10 11  1  0
 11 12  2  0
 12 13  1  0
 12 23  1  0
 13 14  1  0
 14 15  2  0
 14 16  1  0
 16 17  1  0
 17 18  2  0
 17 22  1  0
 18 19  1  0
 19 20  2  0
 20 21  1  0
 21 22  2  0
M  END
