WPC1580_minimised.pdb
     RDKit          3D

 21 22  0  0  0  0  0  0  0  0999 V2000
    8.5320    0.0360   19.6930 O   0  0  0  0  0  0  0  0  0  0  0  0
    7.8150   -0.3180   20.6070 C   0  0  0  0  0  0  0  0  0  0  0  0
    6.4510   -0.3050   20.5200 N   0  0  0  0  0  0  0  0  0  0  0  0
    5.7460    0.3330   19.4750 C   0  0  0  0  0  0  0  0  0  0  0  0
    4.8120    1.3280   19.7860 C   0  0  0  0  0  0  0  0  0  0  0  0
    4.2580    2.0540   18.7240 C   0  0  0  0  0  0  0  0  0  0  0  0
    4.6640    1.7790   17.4100 C   0  0  0  0  0  0  0  0  0  0  0  0
    5.5360    0.7930   17.1010 N   0  0  0  0  0  0  0  0  0  0  0  0
    6.0710    0.0980   18.1230 C   0  0  0  0  0  0  0  0  0  0  0  0
    8.2710   -0.6870   21.8380 N   0  0  0  0  0  0  0  0  0  0  0  0
    9.5640   -0.3780   22.2920 C   0  0  0  0  0  0  0  0  0  0  0  0
   10.6840   -1.0870   21.8370 C   0  0  0  0  0  0  0  0  0  0  0  0
   11.9730   -0.6760   22.2150 C   0  0  0  0  0  0  0  0  0  0  0  0
   12.1340    0.4430   23.0510 C   0  0  0  0  0  0  0  0  0  0  0  0
   11.0070    1.1500   23.5070 C   0  0  0  0  0  0  0  0  0  0  0  0
   11.1380    2.3820   24.3820 C   0  0  0  0  0  0  0  0  0  0  0  0
   11.2690    3.6750   23.5550 C   0  0  0  0  0  0  0  0  0  0  0  0
   12.7340    4.0050   23.1850 C   0  0  0  0  0  0  0  0  0  0  0  0
   12.8030    4.8760   21.9270 C   0  0  0  0  0  0  0  0  0  0  0  0
   14.1180    5.3910   21.7440 O   0  0  0  0  0  0  0  0  0  0  0  0
    9.7260    0.7330   23.1240 C   0  0  0  0  0  0  0  0  0  0  0  0
  1  2  2  0
  2 10  1  0
  2  3  1  0
  3  4  1  0
  4  5  2  0
  4  9  1  0
  5  6  1  0
  6  7  2  0
  7  8  1  0
  8  9  2  0
 10 11  1  0
 11 12  2  0
 11 21  1  0
 12 13  1  0
 13 14  2  0
 14 15  1  0
 15 16  1  0
 15 21  2  0
 16 17  1  0
 17 18  1  0
 18 19  1  0
 19 20  1  0
M  END
