WPC1003_minimised.pdb
     RDKit          3D

 23 24  0  0  0  0  0  0  0  0999 V2000
   10.5830    4.9770   23.1790 N   0  0  0  0  0  0  0  0  0  0  0  0
   11.8740    4.6010   23.3650 C   0  0  0  0  0  0  0  0  0  0  0  0
   12.4600    4.8630   24.3940 O   0  0  0  0  0  0  0  0  0  0  0  0
   12.3950    3.9180   22.2890 N   0  0  0  0  0  0  0  0  0  0  0  0
   13.7220    3.6010   22.1370 N   0  0  0  0  0  0  0  0  0  0  0  0
   14.2770    2.4720   22.4290 C   0  0  0  0  0  0  0  0  0  0  0  0
   13.6990    1.2590   23.1480 C   0  0  0  0  0  0  0  0  0  0  0  0
   12.2710    0.8490   22.8560 C   0  0  0  0  0  0  0  0  0  0  0  0
   12.0010   -0.1020   21.8610 C   0  0  0  0  0  0  0  0  0  0  0  0
   10.6800   -0.5060   21.6310 C   0  0  0  0  0  0  0  0  0  0  0  0
    9.6270    0.0560   22.3680 C   0  0  0  0  0  0  0  0  0  0  0  0
    8.2900   -0.1960   22.0000 N   0  0  0  0  0  0  0  0  0  0  0  0
    7.8140    0.0060   20.7350 C   0  0  0  0  0  0  0  0  0  0  0  0
    8.5240    0.2240   19.7720 O   0  0  0  0  0  0  0  0  0  0  0  0
    6.4490    0.0100   20.6550 N   0  0  0  0  0  0  0  0  0  0  0  0
    5.7370    0.5400   19.5540 C   0  0  0  0  0  0  0  0  0  0  0  0
    4.7760    1.5310   19.7850 C   0  0  0  0  0  0  0  0  0  0  0  0
    4.2260    2.1760   18.6710 C   0  0  0  0  0  0  0  0  0  0  0  0
    4.6650    1.8320   17.3850 C   0  0  0  0  0  0  0  0  0  0  0  0
    5.5500    0.8370   17.1490 N   0  0  0  0  0  0  0  0  0  0  0  0
    6.0790    0.2170   18.2220 C   0  0  0  0  0  0  0  0  0  0  0  0
    9.9000    0.9600   23.4030 C   0  0  0  0  0  0  0  0  0  0  0  0
   11.2240    1.3410   23.6580 C   0  0  0  0  0  0  0  0  0  0  0  0
  1  2  1  0
  2  3  2  0
  2  4  1  0
  4  5  1  0
  5  6  2  0
  6  7  1  0
  7  8  1  0
  8 23  2  0
  8  9  1  0
  9 10  2  0
 10 11  1  0
 11 12  1  0
 11 22  2  0
 12 13  1  0
 13 14  2  0
 13 15  1  0
 15 16  1  0
 16 17  2  0
 16 21  1  0
 17 18  1  0
 18 19  2  0
 19 20  1  0
 20 21  2  0
 22 23  1  0
M  END
