WPC1800_minimised.pdb
     RDKit          3D

 20 21  0  0  0  0  0  0  0  0999 V2000
   10.7530    4.5390   23.4600 N   0  0  0  0  0  0  0  0  0  0  0  0
   11.7270    3.9130   22.9610 C   0  0  0  0  0  0  0  0  0  0  0  0
   12.5690    4.6720   22.2120 N   0  0  0  0  0  0  0  0  0  0  0  0
   12.2690    2.6160   23.5160 C   0  0  0  0  0  0  0  0  0  0  0  0
   11.7600    1.3460   22.8530 C   0  0  0  0  0  0  0  0  0  0  0  0
   12.6590    0.3390   22.4550 C   0  0  0  0  0  0  0  0  0  0  0  0
   12.1800   -0.8530   21.8860 C   0  0  0  0  0  0  0  0  0  0  0  0
   10.7990   -1.0430   21.7200 C   0  0  0  0  0  0  0  0  0  0  0  0
    9.9010   -0.0430   22.1190 C   0  0  0  0  0  0  0  0  0  0  0  0
    8.5190   -0.1860   21.8900 N   0  0  0  0  0  0  0  0  0  0  0  0
    7.9470   -0.0830   20.6540 C   0  0  0  0  0  0  0  0  0  0  0  0
    8.5850   -0.0580   19.6220 O   0  0  0  0  0  0  0  0  0  0  0  0
    6.5850    0.0540   20.6780 N   0  0  0  0  0  0  0  0  0  0  0  0
    5.8180    0.5550   19.5970 C   0  0  0  0  0  0  0  0  0  0  0  0
    4.8780    1.5630   19.8500 C   0  0  0  0  0  0  0  0  0  0  0  0
    4.2560    2.1660   18.7500 C   0  0  0  0  0  0  0  0  0  0  0  0
    4.6090    1.7690   17.4520 C   0  0  0  0  0  0  0  0  0  0  0  0
    5.4700    0.7580   17.2000 N   0  0  0  0  0  0  0  0  0  0  0  0
    6.0630    0.1740   18.2590 C   0  0  0  0  0  0  0  0  0  0  0  0
   10.3800    1.1460   22.6870 C   0  0  0  0  0  0  0  0  0  0  0  0
  1  2  2  0
  2  3  1  0
  2  4  1  0
  4  5  1  0
  5 20  2  0
  5  6  1  0
  6  7  2  0
  7  8  1  0
  8  9  2  0
  9 10  1  0
  9 20  1  0
 10 11  1  0
 11 12  2  0
 11 13  1  0
 13 14  1  0
 14 15  2  0
 14 19  1  0
 15 16  1  0
 16 17  2  0
 17 18  1  0
 18 19  2  0
M  END
