WPC1376_minimised.pdb
     RDKit          3D

 22 23  0  0  1  0  0  0  0  0999 V2000
   12.8400    5.1040   22.7740 C   0  0  0  0  0  0  0  0  0  0  0  0
   12.5720    3.6320   23.1300 C   0  0  0  0  0  0  0  0  0  0  0  0
   11.4110    3.4150   24.1350 C   0  0  1  0  0  0  0  0  0  0  0  0
   10.0430    3.8780   23.5710 C   0  0  0  0  0  0  0  0  0  0  0  0
    9.7810    5.3000   23.8400 N   0  0  0  0  0  0  0  0  0  0  0  0
   11.3720    1.9360   24.6050 C   0  0  0  0  0  0  0  0  0  0  0  0
   11.0820    0.9030   23.5340 C   0  0  0  0  0  0  0  0  0  0  0  0
   12.1370    0.2420   22.8780 C   0  0  0  0  0  0  0  0  0  0  0  0
   11.8650   -0.7700   21.9430 C   0  0  0  0  0  0  0  0  0  0  0  0
   10.5340   -1.0980   21.6480 C   0  0  0  0  0  0  0  0  0  0  0  0
    9.4830   -0.4110   22.2700 C   0  0  0  0  0  0  0  0  0  0  0  0
    8.1520   -0.5990   21.8590 N   0  0  0  0  0  0  0  0  0  0  0  0
    7.7180   -0.3120   20.5960 C   0  0  0  0  0  0  0  0  0  0  0  0
    8.4550   -0.1460   19.6440 O   0  0  0  0  0  0  0  0  0  0  0  0
    6.3620   -0.1570   20.5200 N   0  0  0  0  0  0  0  0  0  0  0  0
    5.6920    0.4690   19.4430 C   0  0  0  0  0  0  0  0  0  0  0  0
    4.7570    1.4740   19.7190 C   0  0  0  0  0  0  0  0  0  0  0  0
    4.2200    2.1790   18.6350 C   0  0  0  0  0  0  0  0  0  0  0  0
    4.6470    1.8780   17.3330 C   0  0  0  0  0  0  0  0  0  0  0  0
    5.5140    0.8780   17.0560 N   0  0  0  0  0  0  0  0  0  0  0  0
    6.0280    0.1990   18.0990 C   0  0  0  0  0  0  0  0  0  0  0  0
    9.7550    0.5660   23.2310 C   0  0  0  0  0  0  0  0  0  0  0  0
  1  2  1  0
  3  2  1  6
  3  4  1  0
  3  6  1  0
  4  5  1  0
  6  7  1  0
  7 22  2  0
  7  8  1  0
  8  9  2  0
  9 10  1  0
 10 11  2  0
 11 12  1  0
 11 22  1  0
 12 13  1  0
 13 14  2  0
 13 15  1  0
 15 16  1  0
 16 17  2  0
 16 21  1  0
 17 18  1  0
 18 19  2  0
 19 20  1  0
 20 21  2  0
M  END
