WPC1388_minimised.pdb
     RDKit          3D

 24 26  0  0  0  0  0  0  0  0999 V2000
    8.9390    0.8920   20.5530 O   0  0  0  0  0  0  0  0  0  0  0  0
    8.6570   -0.2530   20.8410 C   0  0  0  0  0  0  0  0  0  0  0  0
    7.4640   -0.8090   20.4670 N   0  0  0  0  0  0  0  0  0  0  0  0
    6.5390   -0.1320   19.6320 C   0  0  0  0  0  0  0  0  0  0  0  0
    5.7720    0.9260   20.1430 C   0  0  0  0  0  0  0  0  0  0  0  0
    4.9940    1.6700   19.2430 C   0  0  0  0  0  0  0  0  0  0  0  0
    5.0290    1.3580   17.8750 C   0  0  0  0  0  0  0  0  0  0  0  0
    5.7460    0.3230   17.3830 N   0  0  0  0  0  0  0  0  0  0  0  0
    6.4920   -0.3920   18.2500 C   0  0  0  0  0  0  0  0  0  0  0  0
    9.4970   -1.0650   21.5540 N   0  0  0  0  0  0  0  0  0  0  0  0
   10.6930   -0.5840   22.1220 C   0  0  0  0  0  0  0  0  0  0  0  0
   11.9500   -1.0030   21.6650 C   0  0  0  0  0  0  0  0  0  0  0  0
   13.1150   -0.3720   22.1380 C   0  0  0  0  0  0  0  0  0  0  0  0
   13.0170    0.6870   23.0590 C   0  0  0  0  0  0  0  0  0  0  0  0
   11.7530    1.0940   23.5130 C   0  0  0  0  0  0  0  0  0  0  0  0
   11.5320    2.4480   24.6290 S   0  0  0  0  0  0  0  0  0  0  0  0
   11.9690    3.9420   23.6500 C   0  0  0  0  0  0  0  0  0  0  0  0
   11.0630    5.1140   24.0870 C   0  0  0  0  0  0  0  0  0  0  0  0
    9.7720    5.0900   23.3240 C   0  0  0  0  0  0  0  0  0  0  0  0
    8.9580    3.9930   23.2100 C   0  0  0  0  0  0  0  0  0  0  0  0
    8.0550    4.3270   22.2260 N   0  0  0  0  0  0  0  0  0  0  0  0
    8.3900    5.5860   21.7930 C   0  0  0  0  0  0  0  0  0  0  0  0
    9.3790    6.1010   22.4990 N   0  0  0  0  0  0  0  0  0  0  0  0
   10.6040    0.4460   23.0610 C   0  0  0  0  0  0  0  0  0  0  0  0
  1  2  2  0
  2  3  1  0
  2 10  1  0
  3  4  1  0
  4  5  2  0
  4  9  1  0
  5  6  1  0
  6  7  2  0
  7  8  1  0
  8  9  2  0
 10 11  1  0
 11 24  1  0
 11 12  2  0
 12 13  1  0
 13 14  2  0
 14 15  1  0
 15 16  1  0
 15 24  2  0
 16 17  1  0
 17 18  1  0
 18 19  1  0
 19 20  2  0
 19 23  1  0
 20 21  1  0
 21 22  1  0
 22 23  2  0
M  END
