WPC1518_minimised.pdb
     RDKit          3D

 18 19  0  0  0  0  0  0  0  0999 V2000
   11.7130    4.4670   22.8850 N   0  0  0  0  0  0  0  0  0  0  0  0
   11.0460    3.5470   23.8090 C   0  0  0  0  0  0  0  0  0  0  0  0
   11.0270    2.1260   23.2710 C   0  0  0  0  0  0  0  0  0  0  0  0
   12.2230    1.4320   23.0100 C   0  0  0  0  0  0  0  0  0  0  0  0
   12.1880    0.1460   22.4410 C   0  0  0  0  0  0  0  0  0  0  0  0
   10.9530   -0.4570   22.1420 C   0  0  0  0  0  0  0  0  0  0  0  0
    9.7610    0.2270   22.4230 C   0  0  0  0  0  0  0  0  0  0  0  0
    8.5060   -0.2930   22.0500 N   0  0  0  0  0  0  0  0  0  0  0  0
    8.0040   -0.1570   20.7870 C   0  0  0  0  0  0  0  0  0  0  0  0
    8.6890    0.0790   19.8130 O   0  0  0  0  0  0  0  0  0  0  0  0
    6.6380   -0.2110   20.7240 N   0  0  0  0  0  0  0  0  0  0  0  0
    5.8970    0.3380   19.6500 C   0  0  0  0  0  0  0  0  0  0  0  0
    4.9550    1.3390   19.9200 C   0  0  0  0  0  0  0  0  0  0  0  0
    4.3760    2.0010   18.8300 C   0  0  0  0  0  0  0  0  0  0  0  0
    4.7620    1.6580   17.5260 C   0  0  0  0  0  0  0  0  0  0  0  0
    5.6340    0.6620   17.2560 N   0  0  0  0  0  0  0  0  0  0  0  0
    6.1960    0.0280   18.3050 C   0  0  0  0  0  0  0  0  0  0  0  0
    9.7990    1.5100   22.9840 C   0  0  0  0  0  0  0  0  0  0  0  0
  1  2  1  0
  2  3  1  0
  3 18  2  0
  3  4  1  0
  4  5  2  0
  5  6  1  0
  6  7  2  0
  7  8  1  0
  7 18  1  0
  8  9  1  0
  9 10  2  0
  9 11  1  0
 11 12  1  0
 12 13  2  0
 12 17  1  0
 13 14  1  0
 14 15  2  0
 15 16  1  0
 16 17  2  0
M  END
