WPC1147_minimised.pdb
     RDKit          3D

 22 23  0  0  1  0  0  0  0  0999 V2000
   10.0870    5.6580   23.6210 C   0  0  0  0  0  0  0  0  0  0  0  0
   10.8790    4.3800   23.2880 C   0  0  2  0  0  0  0  0  0  0  0  0
   10.8010    3.1900   24.6840 S   0  0  0  0  0  0  0  0  0  0  0  0
   10.9260    1.6640   23.7900 C   0  0  0  0  0  0  0  0  0  0  0  0
   12.1620    1.1600   23.3530 C   0  0  0  0  0  0  0  0  0  0  0  0
   12.1990    0.0230   22.5260 C   0  0  0  0  0  0  0  0  0  0  0  0
   10.9990   -0.5960   22.1270 C   0  0  0  0  0  0  0  0  0  0  0  0
    9.7690   -0.0840   22.5710 C   0  0  0  0  0  0  0  0  0  0  0  0
    8.5440   -0.5670   22.0740 N   0  0  0  0  0  0  0  0  0  0  0  0
    8.0470   -0.1790   20.8620 C   0  0  0  0  0  0  0  0  0  0  0  0
    8.7240    0.3330   19.9930 O   0  0  0  0  0  0  0  0  0  0  0  0
    6.6960   -0.3380   20.7270 N   0  0  0  0  0  0  0  0  0  0  0  0
    5.9590    0.2560   19.6740 C   0  0  0  0  0  0  0  0  0  0  0  0
    5.0040    1.2380   19.9700 C   0  0  0  0  0  0  0  0  0  0  0  0
    4.4360    1.9380   18.8970 C   0  0  0  0  0  0  0  0  0  0  0  0
    4.8380    1.6440   17.5850 C   0  0  0  0  0  0  0  0  0  0  0  0
    5.7280    0.6690   17.2910 N   0  0  0  0  0  0  0  0  0  0  0  0
    6.2870    0.0090   18.3240 C   0  0  0  0  0  0  0  0  0  0  0  0
    9.7370    1.0350   23.4080 C   0  0  0  0  0  0  0  0  0  0  0  0
   12.3370    4.6770   22.9300 C   0  0  0  0  0  0  0  0  0  0  0  0
   13.2040    4.8790   23.7590 O   0  0  0  0  0  0  0  0  0  0  0  0
   12.5180    5.0130   21.6440 O   0  0  0  0  0  0  0  0  0  0  0  0
  2  1  1  1
  2 20  1  0
  2  3  1  0
  3  4  1  0
  4 19  2  0
  4  5  1  0
  5  6  2  0
  6  7  1  0
  7  8  2  0
  8  9  1  0
  8 19  1  0
  9 10  1  0
 10 11  2  0
 10 12  1  0
 12 13  1  0
 13 14  2  0
 13 18  1  0
 14 15  1  0
 15 16  2  0
 16 17  1  0
 17 18  2  0
 20 21  2  0
 20 22  1  0
M  END
