WPC1715_minimised.pdb
     RDKit          3D

 23 25  0  0  0  0  0  0  0  0999 V2000
    8.5070   -0.1390   19.6610 O   0  0  0  0  0  0  0  0  0  0  0  0
    7.8390   -0.2270   20.6720 C   0  0  0  0  0  0  0  0  0  0  0  0
    6.4820   -0.0580   20.6690 N   0  0  0  0  0  0  0  0  0  0  0  0
    5.7530    0.5030   19.5900 C   0  0  0  0  0  0  0  0  0  0  0  0
    4.8250    1.5170   19.8570 C   0  0  0  0  0  0  0  0  0  0  0  0
    4.2380    2.1680   18.7640 C   0  0  0  0  0  0  0  0  0  0  0  0
    4.6100    1.8080   17.4610 C   0  0  0  0  0  0  0  0  0  0  0  0
    5.4630    0.7940   17.1940 N   0  0  0  0  0  0  0  0  0  0  0  0
    6.0240    0.1650   18.2450 C   0  0  0  0  0  0  0  0  0  0  0  0
    8.3740   -0.4440   21.9120 N   0  0  0  0  0  0  0  0  0  0  0  0
    9.7540   -0.3380   22.1750 C   0  0  0  0  0  0  0  0  0  0  0  0
   10.6610   -1.2340   21.5940 C   0  0  0  0  0  0  0  0  0  0  0  0
   12.0410   -1.0180   21.7180 C   0  0  0  0  0  0  0  0  0  0  0  0
   12.5120    0.0940   22.4330 C   0  0  0  0  0  0  0  0  0  0  0  0
   11.6050    0.9770   23.0500 C   0  0  0  0  0  0  0  0  0  0  0  0
   12.1340    2.1040   23.9220 C   0  0  0  0  0  0  0  0  0  0  0  0
   11.8310    3.4850   23.5140 N   0  0  0  0  0  0  0  0  0  0  0  0
   10.1960    4.0530   23.5690 S   0  0  0  0  0  0  0  0  0  0  0  0
   10.7310    5.7250   23.6930 C   0  0  0  0  0  0  0  0  0  0  0  0
   12.1060    5.7440   23.6750 C   0  0  0  0  0  0  0  0  0  0  0  0
   12.7880    4.4720   23.5390 C   0  0  0  0  0  0  0  0  0  0  0  0
   13.9970    4.3300   23.5400 O   0  0  0  0  0  0  0  0  0  0  0  0
   10.2240    0.7430   22.9290 C   0  0  0  0  0  0  0  0  0  0  0  0
  1  2  2  0
  2  3  1  0
  2 10  1  0
  3  4  1  0
  4  5  2  0
  4  9  1  0
  5  6  1  0
  6  7  2  0
  7  8  1  0
  8  9  2  0
 10 11  1  0
 11 23  1  0
 11 12  2  0
 12 13  1  0
 13 14  2  0
 14 15  1  0
 15 16  1  0
 15 23  2  0
 16 17  1  0
 17 18  1  0
 17 21  1  0
 18 19  2  0
 19 20  1  0
 20 21  1  0
 21 22  2  0
M  END
