WPC1573_minimised.pdb
     RDKit          3D

 23 25  0  0  0  0  0  0  0  0999 V2000
    8.5130   -0.0490   19.7100 O   0  0  0  0  0  0  0  0  0  0  0  0
    7.8100   -0.2460   20.6820 C   0  0  0  0  0  0  0  0  0  0  0  0
    6.4500   -0.1130   20.6400 N   0  0  0  0  0  0  0  0  0  0  0  0
    5.7470    0.4760   19.5620 C   0  0  0  0  0  0  0  0  0  0  0  0
    4.8170    1.4890   19.8260 C   0  0  0  0  0  0  0  0  0  0  0  0
    4.2580    2.1610   18.7310 C   0  0  0  0  0  0  0  0  0  0  0  0
    4.6560    1.8190   17.4300 C   0  0  0  0  0  0  0  0  0  0  0  0
    5.5130    0.8080   17.1650 N   0  0  0  0  0  0  0  0  0  0  0  0
    6.0510    0.1620   18.2190 C   0  0  0  0  0  0  0  0  0  0  0  0
    8.2960   -0.5680   21.9190 N   0  0  0  0  0  0  0  0  0  0  0  0
    9.6590   -0.4620   22.2580 C   0  0  0  0  0  0  0  0  0  0  0  0
   10.6290   -1.1620   21.5320 C   0  0  0  0  0  0  0  0  0  0  0  0
   11.9920   -0.8990   21.7320 C   0  0  0  0  0  0  0  0  0  0  0  0
   12.3790    0.0510   22.6890 C   0  0  0  0  0  0  0  0  0  0  0  0
   11.4080    0.6990   23.4750 C   0  0  0  0  0  0  0  0  0  0  0  0
   11.8370    1.6120   24.6050 C   0  0  0  0  0  0  0  0  0  0  0  0
   11.6950    3.1380   24.3610 C   0  0  0  0  0  0  0  0  0  0  0  0
   12.4220    3.6370   23.0960 C   0  0  0  0  0  0  0  0  0  0  0  0
   12.1360    5.1350   22.9000 C   0  0  0  0  0  0  0  0  0  0  0  0
   10.6950    5.4110   22.7060 N   0  0  0  0  0  0  0  0  0  0  0  0
    9.7590    4.3730   23.1870 C   0  0  0  0  0  0  0  0  0  0  0  0
   10.2510    3.6750   24.4650 C   0  0  0  0  0  0  0  0  0  0  0  0
   10.0460    0.4350   23.2550 C   0  0  0  0  0  0  0  0  0  0  0  0
  1  2  2  0
  2  3  1  0
  2 10  1  0
  3  4  1  0
  4  5  2  0
  4  9  1  0
  5  6  1  0
  6  7  2  0
  7  8  1  0
  8  9  2  0
 10 11  1  0
 11 23  1  0
 11 12  2  0
 12 13  1  0
 13 14  2  0
 14 15  1  0
 15 16  1  0
 15 23  2  0
 16 17  1  0
 17 18  1  0
 17 22  1  0
 18 19  1  0
 19 20  1  0
 20 21  1  0
 21 22  1  0
M  END
