WPC1630_minimised.pdb
     RDKit          3D

 19 20  0  0  1  0  0  0  0  0999 V2000
    8.5860   -0.2230   20.0240 O   0  0  0  0  0  0  0  0  0  0  0  0
    7.9270   -1.0310   20.6140 C   0  0  0  0  0  0  0  0  0  0  0  0
    6.5740   -0.8230   20.9570 N   0  0  0  0  0  0  0  0  0  0  0  0
    5.8470    0.0000   20.1200 C   0  0  0  0  0  0  0  0  0  0  0  0
    5.6220   -0.2240   18.8610 C   0  0  0  0  0  0  0  0  0  0  0  0
    4.8740    0.5770   18.1210 C   0  0  0  0  0  0  0  0  0  0  0  0
    4.3480    1.7040   18.7600 C   0  0  0  0  0  0  0  0  0  0  0  0
    4.5500    1.8730   19.9810 N   0  0  0  0  0  0  0  0  0  0  0  0
    5.3050    1.1260   20.7040 C   0  0  0  0  0  0  0  0  0  0  0  0
    8.6080   -1.9040   21.4680 N   0  0  0  0  0  0  0  0  0  0  0  0
    9.8760   -1.5710   22.0430 C   0  0  1  0  0  0  0  0  0  0  0  0
   10.8660   -1.4350   21.2730 C   0  0  0  0  0  0  0  0  0  0  0  0
   12.2430   -0.8060   21.6650 C   0  0  0  0  0  0  0  0  0  0  0  0
   12.0810    0.1230   22.8890 C   0  0  0  0  0  0  0  0  0  0  0  0
   10.6400    0.5470   23.2210 C   0  0  2  0  0  0  0  0  0  0  0  0
   10.2300    1.8080   24.9960 I   0  0  0  0  0  0  0  0  0  0  0  0
   11.8430    2.8130   24.0650 O   0  0  0  0  0  0  0  0  0  0  0  0
   12.4730    2.2270   24.6880 O   0  0  0  0  0  0  0  0  0  0  0  0
    9.7560   -0.7290   23.3170 C   0  0  0  0  0  0  0  0  0  0  0  0
  1  2  2  0
  2 10  1  0
  2  3  1  0
  3  4  1  0
  4  5  2  0
  4  9  1  0
  5  6  1  0
  6  7  2  0
  7  8  1  0
  8  9  2  0
 11 10  1  6
 11 12  1  0
 11 19  1  0
 12 13  1  0
 13 14  1  0
 14 15  1  0
 15 16  1  1
 15 19  1  0
 16 17  1  0
 16 18  1  0
M  END
