WPC1063_minimised.pdb
     RDKit          3D

 20 21  0  0  0  0  0  0  0  0999 V2000
   14.6580    4.4090   22.9390 O   0  0  0  0  0  0  0  0  0  0  0  0
   14.5960    3.2360   22.6210 C   0  0  0  0  0  0  0  0  0  0  0  0
   13.5590    2.4520   23.0100 O   0  0  0  0  0  0  0  0  0  0  0  0
   13.6880    1.0220   22.9780 C   0  0  0  0  0  0  0  0  0  0  0  0
   12.2820    0.4570   22.8900 C   0  0  0  0  0  0  0  0  0  0  0  0
   11.9910   -0.5890   21.9950 C   0  0  0  0  0  0  0  0  0  0  0  0
   10.6610   -0.9890   21.7990 C   0  0  0  0  0  0  0  0  0  0  0  0
    9.6200   -0.3420   22.4790 C   0  0  0  0  0  0  0  0  0  0  0  0
    8.2790   -0.5490   22.0960 N   0  0  0  0  0  0  0  0  0  0  0  0
    7.8230   -0.3070   20.8270 C   0  0  0  0  0  0  0  0  0  0  0  0
    8.5440   -0.1630   19.8610 O   0  0  0  0  0  0  0  0  0  0  0  0
    6.4640   -0.1740   20.7510 N   0  0  0  0  0  0  0  0  0  0  0  0
    5.7840    0.4080   19.6520 C   0  0  0  0  0  0  0  0  0  0  0  0
    4.8560    1.4280   19.8950 C   0  0  0  0  0  0  0  0  0  0  0  0
    4.3090    2.0900   18.7880 C   0  0  0  0  0  0  0  0  0  0  0  0
    4.7160    1.7300   17.4950 C   0  0  0  0  0  0  0  0  0  0  0  0
    5.5750    0.7150   17.2490 N   0  0  0  0  0  0  0  0  0  0  0  0
    6.1050    0.0820   18.3150 C   0  0  0  0  0  0  0  0  0  0  0  0
    9.9120    0.6410   23.4320 C   0  0  0  0  0  0  0  0  0  0  0  0
   11.2400    1.0370   23.6400 C   0  0  0  0  0  0  0  0  0  0  0  0
  1  2  2  0
  2  3  1  0
  3  4  1  0
  4  5  1  0
  5 20  2  0
  5  6  1  0
  6  7  2  0
  7  8  1  0
  8  9  1  0
  8 19  2  0
  9 10  1  0
 10 11  2  0
 10 12  1  0
 12 13  1  0
 13 14  2  0
 13 18  1  0
 14 15  1  0
 15 16  2  0
 16 17  1  0
 17 18  2  0
 19 20  1  0
M  END
