WPC1896_minimised.pdb
     RDKit          3D

 24 26  0  0  0  0  0  0  0  0999 V2000
    8.5370    0.3450   19.8240 O   0  0  0  0  0  0  0  0  0  0  0  0
    7.8120   -0.0480   20.7160 C   0  0  0  0  0  0  0  0  0  0  0  0
    6.4590   -0.1590   20.5700 N   0  0  0  0  0  0  0  0  0  0  0  0
    5.7540    0.4080   19.4870 C   0  0  0  0  0  0  0  0  0  0  0  0
    4.7880    1.3880   19.7430 C   0  0  0  0  0  0  0  0  0  0  0  0
    4.2330    2.0540   18.6440 C   0  0  0  0  0  0  0  0  0  0  0  0
    4.6680    1.7350   17.3500 C   0  0  0  0  0  0  0  0  0  0  0  0
    5.5740    0.7650   17.0930 N   0  0  0  0  0  0  0  0  0  0  0  0
    6.1160    0.1320   18.1520 C   0  0  0  0  0  0  0  0  0  0  0  0
    8.2380   -0.3470   21.9770 N   0  0  0  0  0  0  0  0  0  0  0  0
    9.4860    0.0480   22.4910 C   0  0  0  0  0  0  0  0  0  0  0  0
   10.6860   -0.4230   21.9360 C   0  0  0  0  0  0  0  0  0  0  0  0
   11.9140    0.0650   22.4120 C   0  0  0  0  0  0  0  0  0  0  0  0
   11.9340    1.0240   23.4380 C   0  0  0  0  0  0  0  0  0  0  0  0
   10.7290    1.4920   23.9950 C   0  0  0  0  0  0  0  0  0  0  0  0
   10.7400    2.5050   25.1240 C   0  0  0  0  0  0  0  0  0  0  0  0
   10.6830    3.9810   24.6810 C   0  0  0  0  0  0  0  0  0  0  0  0
   11.7510    4.3120   23.6620 C   0  0  0  0  0  0  0  0  0  0  0  0
   11.4310    4.2740   22.3080 C   0  0  0  0  0  0  0  0  0  0  0  0
   12.4070    4.5770   21.3570 C   0  0  0  0  0  0  0  0  0  0  0  0
   13.7050    4.8300   21.8080 C   0  0  0  0  0  0  0  0  0  0  0  0
   13.9580    4.7720   23.1830 C   0  0  0  0  0  0  0  0  0  0  0  0
   12.9960    4.5630   24.1050 N   0  0  0  0  0  0  0  0  0  0  0  0
    9.5080    0.9960   23.5200 C   0  0  0  0  0  0  0  0  0  0  0  0
  1  2  2  0
  2  3  1  0
  2 10  1  0
  3  4  1  0
  4  5  2  0
  4  9  1  0
  5  6  1  0
  6  7  2  0
  7  8  1  0
  8  9  2  0
 10 11  1  0
 11 24  1  0
 11 12  2  0
 12 13  1  0
 13 14  2  0
 14 15  1  0
 15 16  1  0
 15 24  2  0
 16 17  1  0
 17 18  1  0
 18 19  2  0
 18 23  1  0
 19 20  1  0
 20 21  2  0
 21 22  1  0
 22 23  2  0
M  END
