WPC1232_minimised.pdb
     RDKit          3D

 22 23  0  0  0  0  0  0  0  0999 V2000
   13.6970    5.4840   22.5330 N   0  0  0  0  0  0  0  0  0  0  0  0
   12.7230    5.2040   23.4240 C   0  0  0  0  0  0  0  0  0  0  0  0
   12.8430    5.4880   24.5930 O   0  0  0  0  0  0  0  0  0  0  0  0
   11.6330    4.5790   22.8940 N   0  0  0  0  0  0  0  0  0  0  0  0
   10.4720    4.1990   23.7030 C   0  0  0  0  0  0  0  0  0  0  0  0
   10.7240    2.8820   24.4610 C   0  0  0  0  0  0  0  0  0  0  0  0
   10.7660    1.6590   23.5660 C   0  0  0  0  0  0  0  0  0  0  0  0
   11.9850    1.1110   23.1260 C   0  0  0  0  0  0  0  0  0  0  0  0
   11.9890   -0.0200   22.2920 C   0  0  0  0  0  0  0  0  0  0  0  0
   10.7730   -0.6030   21.8950 C   0  0  0  0  0  0  0  0  0  0  0  0
    9.5600   -0.0540   22.3390 C   0  0  0  0  0  0  0  0  0  0  0  0
    8.3170   -0.5280   21.8810 N   0  0  0  0  0  0  0  0  0  0  0  0
    7.8620   -0.2800   20.6190 C   0  0  0  0  0  0  0  0  0  0  0  0
    8.5820    0.0040   19.6830 O   0  0  0  0  0  0  0  0  0  0  0  0
    6.4970   -0.2790   20.5280 N   0  0  0  0  0  0  0  0  0  0  0  0
    5.7930    0.3470   19.4740 C   0  0  0  0  0  0  0  0  0  0  0  0
    4.8570    1.3440   19.7780 C   0  0  0  0  0  0  0  0  0  0  0  0
    4.3070    2.0690   18.7130 C   0  0  0  0  0  0  0  0  0  0  0  0
    4.7190    1.7930   17.4010 C   0  0  0  0  0  0  0  0  0  0  0  0
    5.5910    0.8050   17.0980 N   0  0  0  0  0  0  0  0  0  0  0  0
    6.1200    0.1080   18.1230 C   0  0  0  0  0  0  0  0  0  0  0  0
    9.5590    1.0650   23.1760 C   0  0  0  0  0  0  0  0  0  0  0  0
  1  2  1  0
  2  3  2  0
  2  4  1  0
  4  5  1  0
  5  6  1  0
  6  7  1  0
  7 22  2  0
  7  8  1  0
  8  9  2  0
  9 10  1  0
 10 11  2  0
 11 12  1  0
 11 22  1  0
 12 13  1  0
 13 14  2  0
 13 15  1  0
 15 16  1  0
 16 17  2  0
 16 21  1  0
 17 18  1  0
 18 19  2  0
 19 20  1  0
 20 21  2  0
M  END
