WPC1030_minimised.pdb
     RDKit          3D

 20 21  0  0  1  0  0  0  0  0999 V2000
   12.3430    4.0140   23.2030 C   0  0  0  0  0  0  0  0  0  0  0  0
   13.4550    3.0260   22.7900 C   0  0  0  0  0  0  0  0  0  0  0  0
   13.3080    1.5890   23.3640 C   0  0  2  0  0  0  0  0  0  0  0  0
   14.4870    0.7170   22.8890 C   0  0  0  0  0  0  0  0  0  0  0  0
   11.9490    0.9520   23.0790 C   0  0  0  0  0  0  0  0  0  0  0  0
   11.7470    0.0920   21.9810 C   0  0  0  0  0  0  0  0  0  0  0  0
   10.4720   -0.4090   21.7050 C   0  0  0  0  0  0  0  0  0  0  0  0
    9.3730   -0.0160   22.4790 C   0  0  0  0  0  0  0  0  0  0  0  0
    8.0620   -0.2790   22.0300 N   0  0  0  0  0  0  0  0  0  0  0  0
    7.6400   -0.0440   20.7470 C   0  0  0  0  0  0  0  0  0  0  0  0
    8.3810    0.1710   19.8060 O   0  0  0  0  0  0  0  0  0  0  0  0
    6.2790   -0.0060   20.6250 N   0  0  0  0  0  0  0  0  0  0  0  0
    5.6110    0.5520   19.5100 C   0  0  0  0  0  0  0  0  0  0  0  0
    4.6580    1.5550   19.7240 C   0  0  0  0  0  0  0  0  0  0  0  0
    4.1510    2.2200   18.6010 C   0  0  0  0  0  0  0  0  0  0  0  0
    4.6200    1.8810   17.3240 C   0  0  0  0  0  0  0  0  0  0  0  0
    5.4970    0.8760   17.1030 N   0  0  0  0  0  0  0  0  0  0  0  0
    5.9890    0.2400   18.1850 C   0  0  0  0  0  0  0  0  0  0  0  0
    9.5740    0.7720   23.6200 C   0  0  0  0  0  0  0  0  0  0  0  0
   10.8620    1.2360   23.9300 C   0  0  0  0  0  0  0  0  0  0  0  0
  1  2  1  0
  2  3  1  0
  3  4  1  6
  3  5  1  0
  5 20  2  0
  5  6  1  0
  6  7  2  0
  7  8  1  0
  8  9  1  0
  8 19  2  0
  9 10  1  0
 10 11  2  0
 10 12  1  0
 12 13  1  0
 13 14  2  0
 13 18  1  0
 14 15  1  0
 15 16  2  0
 16 17  1  0
 17 18  2  0
 19 20  1  0
M  END
