WPC1937_minimised.pdb
     RDKit          3D

 23 24  0  0  1  0  0  0  0  0999 V2000
   12.8070    4.3310   22.9890 C   0  0  0  0  0  0  0  0  0  0  0  0
   11.4980    4.2220   23.7920 C   0  0  2  0  0  0  0  0  0  0  0  0
   11.2520    2.8340   24.4250 C   0  0  0  0  0  0  0  0  0  0  0  0
   11.1110    1.6620   23.4670 C   0  0  0  0  0  0  0  0  0  0  0  0
   12.2420    0.9670   23.0010 C   0  0  0  0  0  0  0  0  0  0  0  0
   12.0890   -0.1580   22.1720 C   0  0  0  0  0  0  0  0  0  0  0  0
   10.8020   -0.5980   21.8210 C   0  0  0  0  0  0  0  0  0  0  0  0
    9.6750    0.0900   22.2950 C   0  0  0  0  0  0  0  0  0  0  0  0
    8.3750   -0.2890   21.9110 N   0  0  0  0  0  0  0  0  0  0  0  0
    7.8720   -0.0850   20.6600 C   0  0  0  0  0  0  0  0  0  0  0  0
    8.5530    0.1930   19.6930 O   0  0  0  0  0  0  0  0  0  0  0  0
    6.5070   -0.1280   20.6040 N   0  0  0  0  0  0  0  0  0  0  0  0
    5.7650    0.4320   19.5380 C   0  0  0  0  0  0  0  0  0  0  0  0
    4.8300    1.4360   19.8180 C   0  0  0  0  0  0  0  0  0  0  0  0
    4.2580    2.1120   18.7320 C   0  0  0  0  0  0  0  0  0  0  0  0
    4.6510    1.7820   17.4270 C   0  0  0  0  0  0  0  0  0  0  0  0
    5.5190    0.7830   17.1490 N   0  0  0  0  0  0  0  0  0  0  0  0
    6.0670    0.1320   18.1930 C   0  0  0  0  0  0  0  0  0  0  0  0
    9.8310    1.2150   23.1130 C   0  0  0  0  0  0  0  0  0  0  0  0
   10.3760    4.5880   22.9390 N   0  0  0  0  0  0  0  0  0  0  0  0
    9.6960    5.7550   23.0390 C   0  0  0  0  0  0  0  0  0  0  0  0
    8.7130    5.8660   22.1300 N   0  0  0  0  0  0  0  0  0  0  0  0
    9.9260    6.6190   23.8490 O   0  0  0  0  0  0  0  0  0  0  0  0
  2  1  1  6
  2 20  1  0
  2  3  1  0
  3  4  1  0
  4 19  2  0
  4  5  1  0
  5  6  2  0
  6  7  1  0
  7  8  2  0
  8  9  1  0
  8 19  1  0
  9 10  1  0
 10 11  2  0
 10 12  1  0
 12 13  1  0
 13 14  2  0
 13 18  1  0
 14 15  1  0
 15 16  2  0
 16 17  1  0
 17 18  2  0
 20 21  1  0
 21 22  1  0
 21 23  2  0
M  END
