WPC1188_minimised.pdb
     RDKit          3D

 23 24  0  0  0  0  0  0  0  0999 V2000
   12.7610    5.3060   24.5850 O   0  0  0  0  0  0  0  0  0  0  0  0
   12.5630    4.9490   23.4380 C   0  0  0  0  0  0  0  0  0  0  0  0
   13.6910    4.8640   22.4010 C   0  0  0  0  0  0  0  0  0  0  0  0
   13.3190    5.3240   21.0880 O   0  0  0  0  0  0  0  0  0  0  0  0
   11.3300    4.4820   23.0360 N   0  0  0  0  0  0  0  0  0  0  0  0
   10.2820    4.1020   23.9840 C   0  0  0  0  0  0  0  0  0  0  0  0
   10.6170    2.7620   24.6690 C   0  0  0  0  0  0  0  0  0  0  0  0
   10.6810    1.5790   23.7220 C   0  0  0  0  0  0  0  0  0  0  0  0
   11.9100    1.0430   23.2950 C   0  0  0  0  0  0  0  0  0  0  0  0
   11.9350   -0.0540   22.4140 C   0  0  0  0  0  0  0  0  0  0  0  0
   10.7290   -0.6120   21.9570 C   0  0  0  0  0  0  0  0  0  0  0  0
    9.5070   -0.0790   22.3940 C   0  0  0  0  0  0  0  0  0  0  0  0
    8.2770   -0.5300   21.8860 N   0  0  0  0  0  0  0  0  0  0  0  0
    7.8680   -0.2530   20.6160 C   0  0  0  0  0  0  0  0  0  0  0  0
    8.6210    0.0480   19.7110 O   0  0  0  0  0  0  0  0  0  0  0  0
    6.5080   -0.2450   20.4860 N   0  0  0  0  0  0  0  0  0  0  0  0
    5.8300    0.3970   19.4240 C   0  0  0  0  0  0  0  0  0  0  0  0
    4.8740    1.3760   19.7200 C   0  0  0  0  0  0  0  0  0  0  0  0
    4.3460    2.1120   18.6520 C   0  0  0  0  0  0  0  0  0  0  0  0
    4.8030    1.8700   17.3490 C   0  0  0  0  0  0  0  0  0  0  0  0
    5.6940    0.8980   17.0530 N   0  0  0  0  0  0  0  0  0  0  0  0
    6.2000    0.1860   18.0800 C   0  0  0  0  0  0  0  0  0  0  0  0
    9.4840    1.0050   23.2750 C   0  0  0  0  0  0  0  0  0  0  0  0
  1  2  2  0
  2  3  1  0
  2  5  1  0
  3  4  1  0
  5  6  1  0
  6  7  1  0
  7  8  1  0
  8 23  2  0
  8  9  1  0
  9 10  2  0
 10 11  1  0
 11 12  2  0
 12 13  1  0
 12 23  1  0
 13 14  1  0
 14 15  2  0
 14 16  1  0
 16 17  1  0
 17 18  2  0
 17 22  1  0
 18 19  1  0
 19 20  2  0
 20 21  1  0
 21 22  2  0
M  END
