WPC1777_minimised.pdb
     RDKit          3D

 24 26  0  0  0  0  0  0  0  0999 V2000
    8.8660    0.8890   20.5390 O   0  0  0  0  0  0  0  0  0  0  0  0
    8.6020   -0.2850   20.7060 C   0  0  0  0  0  0  0  0  0  0  0  0
    7.4320   -0.8350   20.2630 N   0  0  0  0  0  0  0  0  0  0  0  0
    6.4910   -0.1480   19.4580 C   0  0  0  0  0  0  0  0  0  0  0  0
    5.7890    0.9540   19.9700 C   0  0  0  0  0  0  0  0  0  0  0  0
    4.9410    1.6550   19.1000 C   0  0  0  0  0  0  0  0  0  0  0  0
    4.8520    1.2620   17.7550 C   0  0  0  0  0  0  0  0  0  0  0  0
    5.5140    0.1900   17.2650 N   0  0  0  0  0  0  0  0  0  0  0  0
    6.3170   -0.4900   18.1050 C   0  0  0  0  0  0  0  0  0  0  0  0
    9.4450   -1.1630   21.3350 N   0  0  0  0  0  0  0  0  0  0  0  0
   10.6350   -0.7500   21.9620 C   0  0  0  0  0  0  0  0  0  0  0  0
   11.8980   -1.0490   21.4330 C   0  0  0  0  0  0  0  0  0  0  0  0
   13.0490   -0.4620   21.9840 C   0  0  0  0  0  0  0  0  0  0  0  0
   12.9300    0.4340   23.0590 C   0  0  0  0  0  0  0  0  0  0  0  0
   11.6620    0.7120   23.6000 C   0  0  0  0  0  0  0  0  0  0  0  0
   11.4790    1.6910   24.7360 C   0  0  0  0  0  0  0  0  0  0  0  0
   10.6850    2.9510   24.3270 C   0  0  0  0  0  0  0  0  0  0  0  0
   11.3510    3.7890   23.2950 N   0  0  0  0  0  0  0  0  0  0  0  0
   12.7370    4.2100   23.5660 C   0  0  0  0  0  0  0  0  0  0  0  0
   12.7470    5.1560   24.7790 C   0  0  0  0  0  0  0  0  0  0  0  0
   11.8890    6.4010   24.5630 C   0  0  0  0  0  0  0  0  0  0  0  0
   10.4920    6.0350   23.9980 C   0  0  0  0  0  0  0  0  0  0  0  0
   10.5430    4.9560   22.8940 C   0  0  0  0  0  0  0  0  0  0  0  0
   10.5250    0.1080   23.0570 C   0  0  0  0  0  0  0  0  0  0  0  0
  1  2  2  0
  2  3  1  0
  2 10  1  0
  3  4  1  0
  4  5  2  0
  4  9  1  0
  5  6  1  0
  6  7  2  0
  7  8  1  0
  8  9  2  0
 10 11  1  0
 11 24  1  0
 11 12  2  0
 12 13  1  0
 13 14  2  0
 14 15  1  0
 15 16  1  0
 15 24  2  0
 16 17  1  0
 17 18  1  0
 18 19  1  0
 18 23  1  0
 19 20  1  0
 20 21  1  0
 21 22  1  0
 22 23  1  0
M  END
