WPC1622_minimised.pdb
     RDKit          3D

 23 25  0  0  0  0  0  0  0  0999 V2000
    8.3970   -0.2270   19.6530 O   0  0  0  0  0  0  0  0  0  0  0  0
    7.6570   -0.3110   20.6140 C   0  0  0  0  0  0  0  0  0  0  0  0
    6.3120   -0.0800   20.5420 N   0  0  0  0  0  0  0  0  0  0  0  0
    5.6570    0.5330   19.4490 C   0  0  0  0  0  0  0  0  0  0  0  0
    4.7220    1.5440   19.7030 C   0  0  0  0  0  0  0  0  0  0  0  0
    4.1950    2.2340   18.6050 C   0  0  0  0  0  0  0  0  0  0  0  0
    4.6330    1.9170   17.3110 C   0  0  0  0  0  0  0  0  0  0  0  0
    5.4960    0.9090   17.0540 N   0  0  0  0  0  0  0  0  0  0  0  0
    5.9990    0.2410   18.1100 C   0  0  0  0  0  0  0  0  0  0  0  0
    8.0830   -0.5900   21.8820 N   0  0  0  0  0  0  0  0  0  0  0  0
    9.4360   -0.5380   22.2640 C   0  0  0  0  0  0  0  0  0  0  0  0
   10.3860   -1.3560   21.6380 C   0  0  0  0  0  0  0  0  0  0  0  0
   11.7540   -1.1650   21.8840 C   0  0  0  0  0  0  0  0  0  0  0  0
   12.1650   -0.1690   22.7830 C   0  0  0  0  0  0  0  0  0  0  0  0
   11.2070    0.6080   23.4580 C   0  0  0  0  0  0  0  0  0  0  0  0
   11.6360    1.6560   24.4590 C   0  0  0  0  0  0  0  0  0  0  0  0
   11.8800    2.9620   23.8500 N   0  0  0  0  0  0  0  0  0  0  0  0
   13.0270    3.3450   23.1890 C   0  0  0  0  0  0  0  0  0  0  0  0
   12.7710    4.6150   22.7780 C   0  0  0  0  0  0  0  0  0  0  0  0
   13.9610    5.6770   21.7810 Br  0  0  0  0  0  0  0  0  0  0  0  0
   11.4620    4.9570   23.2140 C   0  0  0  0  0  0  0  0  0  0  0  0
   10.9460    3.9560   23.9090 N   0  0  0  0  0  0  0  0  0  0  0  0
    9.8430    0.4310   23.1870 C   0  0  0  0  0  0  0  0  0  0  0  0
  1  2  2  0
  2  3  1  0
  2 10  1  0
  3  4  1  0
  4  5  2  0
  4  9  1  0
  5  6  1  0
  6  7  2  0
  7  8  1  0
  8  9  2  0
 10 11  1  0
 11 23  1  0
 11 12  2  0
 12 13  1  0
 13 14  2  0
 14 15  1  0
 15 16  1  0
 15 23  2  0
 16 17  1  0
 17 18  1  0
 17 22  1  0
 18 19  2  0
 19 20  1  0
 19 21  1  0
 21 22  2  0
M  END
