WPC1521_minimised.pdb
     RDKit          3D

 22 23  0  0  1  0  0  0  0  0999 V2000
    8.5580   -0.0750   19.6050 O   0  0  0  0  0  0  0  0  0  0  0  0
    7.9040   -0.1160   20.6280 C   0  0  0  0  0  0  0  0  0  0  0  0
    6.5440    0.0300   20.6410 N   0  0  0  0  0  0  0  0  0  0  0  0
    5.7900    0.5500   19.5620 C   0  0  0  0  0  0  0  0  0  0  0  0
    4.8480    1.5530   19.8230 C   0  0  0  0  0  0  0  0  0  0  0  0
    4.2380    2.1750   18.7270 C   0  0  0  0  0  0  0  0  0  0  0  0
    4.6040    1.8020   17.4260 C   0  0  0  0  0  0  0  0  0  0  0  0
    5.4680    0.7960   17.1650 N   0  0  0  0  0  0  0  0  0  0  0  0
    6.0500    0.1930   18.2200 C   0  0  0  0  0  0  0  0  0  0  0  0
    8.4590   -0.2440   21.8690 N   0  0  0  0  0  0  0  0  0  0  0  0
    9.8400   -0.1170   22.1110 C   0  0  0  0  0  0  0  0  0  0  0  0
   10.7420   -1.0600   21.6000 C   0  0  0  0  0  0  0  0  0  0  0  0
   12.1230   -0.8710   21.7620 C   0  0  0  0  0  0  0  0  0  0  0  0
   12.5950    0.2590   22.4480 C   0  0  0  0  0  0  0  0  0  0  0  0
   11.6920    1.2080   22.9650 C   0  0  0  0  0  0  0  0  0  0  0  0
   12.1980    2.3430   23.8390 C   0  0  0  0  0  0  0  0  0  0  0  0
   11.9960    3.8210   23.3900 C   0  0  2  0  0  0  0  0  0  0  0  0
   10.6530    4.0620   22.9270 O   0  0  0  0  0  0  0  0  0  0  0  0
   13.0850    4.3950   22.4500 C   0  0  0  0  0  0  0  0  0  0  0  0
   12.8380    5.2230   21.5990 O   0  0  0  0  0  0  0  0  0  0  0  0
   14.3240    4.4010   22.9830 O   0  0  0  0  0  0  0  0  0  0  0  0
   10.3120    1.0030   22.8040 C   0  0  0  0  0  0  0  0  0  0  0  0
  1  2  2  0
  2 10  1  0
  2  3  1  0
  3  4  1  0
  4  5  2  0
  4  9  1  0
  5  6  1  0
  6  7  2  0
  7  8  1  0
  8  9  2  0
 10 11  1  0
 11 12  2  0
 11 22  1  0
 12 13  1  0
 13 14  2  0
 14 15  1  0
 15 16  1  0
 15 22  2  0
 16 17  1  0
 17 19  1  0
 17 18  1  6
 19 20  2  0
 19 21  1  0
M  END
