WPC1596_minimised.pdb
     RDKit          3D

 24 25  0  0  0  0  0  0  0  0999 V2000
    9.7670    5.9760   22.7260 N   0  0  0  0  0  0  0  0  0  0  0  0
   10.6500    4.9900   23.6010 S   0  0  0  0  0  0  0  0  0  0  0  0
   10.4740    5.5580   24.9060 O   0  0  0  0  0  0  0  0  0  0  0  0
   10.0150    3.7760   23.1820 O   0  0  0  0  0  0  0  0  0  0  0  0
   12.2600    5.3420   22.9290 C   0  0  0  0  0  0  0  0  0  0  0  0
   13.6950    4.2980   23.3890 S   0  0  0  0  0  0  0  0  0  0  0  0
   13.1820    2.6800   22.7120 C   0  0  0  0  0  0  0  0  0  0  0  0
   12.5480    1.7500   23.7610 C   0  0  0  0  0  0  0  0  0  0  0  0
   11.9140    0.5620   23.0770 C   0  0  0  0  0  0  0  0  0  0  0  0
   12.7300   -0.4280   22.5070 C   0  0  0  0  0  0  0  0  0  0  0  0
   12.1510   -1.5090   21.8320 C   0  0  0  0  0  0  0  0  0  0  0  0
   10.7570   -1.5860   21.6970 C   0  0  0  0  0  0  0  0  0  0  0  0
    9.9430   -0.5830   22.2410 C   0  0  0  0  0  0  0  0  0  0  0  0
    8.5610   -0.5630   21.9750 N   0  0  0  0  0  0  0  0  0  0  0  0
    8.0430   -0.2320   20.7540 C   0  0  0  0  0  0  0  0  0  0  0  0
    8.7240   -0.0610   19.7630 O   0  0  0  0  0  0  0  0  0  0  0  0
    6.6840   -0.0760   20.7450 N   0  0  0  0  0  0  0  0  0  0  0  0
    5.9440    0.4660   19.6650 C   0  0  0  0  0  0  0  0  0  0  0  0
    4.9900    1.4570   19.9230 C   0  0  0  0  0  0  0  0  0  0  0  0
    4.3770    2.0730   18.8250 C   0  0  0  0  0  0  0  0  0  0  0  0
    4.7480    1.7020   17.5240 C   0  0  0  0  0  0  0  0  0  0  0  0
    5.6240    0.7070   17.2650 N   0  0  0  0  0  0  0  0  0  0  0  0
    6.2160    0.1150   18.3230 C   0  0  0  0  0  0  0  0  0  0  0  0
   10.5190    0.4800   22.9460 C   0  0  0  0  0  0  0  0  0  0  0  0
  1  2  1  0
  2  3  2  0
  2  4  2  0
  2  5  1  0
  5  6  1  0
  6  7  1  0
  7  8  1  0
  8  9  1  0
  9 24  2  0
  9 10  1  0
 10 11  2  0
 11 12  1  0
 12 13  2  0
 13 14  1  0
 13 24  1  0
 14 15  1  0
 15 16  2  0
 15 17  1  0
 17 18  1  0
 18 19  2  0
 18 23  1  0
 19 20  1  0
 20 21  2  0
 21 22  1  0
 22 23  2  0
M  END
