WPC1725_minimised.pdb
     RDKit          3D

 24 26  0  0  0  0  0  0  0  0999 V2000
   12.6780    7.3670   25.5930 C   0  0  0  0  0  0  0  0  0  0  0  0
   12.1750    6.2650   24.7070 C   0  0  0  0  0  0  0  0  0  0  0  0
   12.9440    5.2470   24.3780 N   0  0  0  0  0  0  0  0  0  0  0  0
   12.2440    4.3810   23.5740 C   0  0  0  0  0  0  0  0  0  0  0  0
   12.8140    3.0990   23.0740 C   0  0  0  0  0  0  0  0  0  0  0  0
   12.3540    1.7180   24.1910 S   0  0  0  0  0  0  0  0  0  0  0  0
   11.6980    0.4940   23.1110 C   0  0  0  0  0  0  0  0  0  0  0  0
   12.5590   -0.3440   22.3900 C   0  0  0  0  0  0  0  0  0  0  0  0
   12.0220   -1.3590   21.5880 C   0  0  0  0  0  0  0  0  0  0  0  0
   10.6290   -1.5060   21.4930 C   0  0  0  0  0  0  0  0  0  0  0  0
    9.7750   -0.6250   22.1680 C   0  0  0  0  0  0  0  0  0  0  0  0
    8.3950   -0.6400   21.9020 N   0  0  0  0  0  0  0  0  0  0  0  0
    7.8760   -0.2510   20.7000 C   0  0  0  0  0  0  0  0  0  0  0  0
    8.5610    0.0330   19.7370 O   0  0  0  0  0  0  0  0  0  0  0  0
    6.5120   -0.1650   20.6730 N   0  0  0  0  0  0  0  0  0  0  0  0
    5.7860    0.4220   19.6090 C   0  0  0  0  0  0  0  0  0  0  0  0
    4.8550    1.4290   19.8890 C   0  0  0  0  0  0  0  0  0  0  0  0
    4.2820    2.1040   18.8040 C   0  0  0  0  0  0  0  0  0  0  0  0
    4.6670    1.7710   17.4970 C   0  0  0  0  0  0  0  0  0  0  0  0
    5.5250    0.7650   17.2170 N   0  0  0  0  0  0  0  0  0  0  0  0
    6.0780    0.1170   18.2610 C   0  0  0  0  0  0  0  0  0  0  0  0
   10.3100    0.3640   22.9980 C   0  0  0  0  0  0  0  0  0  0  0  0
   10.9500    4.7250   23.2960 C   0  0  0  0  0  0  0  0  0  0  0  0
   10.5560    6.2440   24.0280 S   0  0  0  0  0  0  0  0  0  0  0  0
  1  2  1  0
  2  3  2  0
  2 24  1  0
  3  4  1  0
  4 23  2  0
  4  5  1  0
  5  6  1  0
  6  7  1  0
  7 22  1  0
  7  8  2  0
  8  9  1  0
  9 10  2  0
 10 11  1  0
 11 12  1  0
 11 22  2  0
 12 13  1  0
 13 14  2  0
 13 15  1  0
 15 16  1  0
 16 17  2  0
 16 21  1  0
 17 18  1  0
 18 19  2  0
 19 20  1  0
 20 21  2  0
 23 24  1  0
M  END
