WPC1597_minimised.pdb
     RDKit          3D

 23 24  0  0  0  0  0  0  0  0999 V2000
   13.6530    5.2930   21.3710 N   0  0  0  0  0  0  0  0  0  0  0  0
   13.5960    5.6040   22.7600 N   0  0  0  0  0  0  0  0  0  0  0  0
   12.5670    5.2930   23.6290 C   0  0  0  0  0  0  0  0  0  0  0  0
   12.6970    5.5180   24.8170 O   0  0  0  0  0  0  0  0  0  0  0  0
   11.4600    4.6840   23.0720 N   0  0  0  0  0  0  0  0  0  0  0  0
   10.3820    4.2480   23.8950 O   0  0  0  0  0  0  0  0  0  0  0  0
   10.7060    3.0420   24.6180 C   0  0  0  0  0  0  0  0  0  0  0  0
   10.7600    1.8270   23.7040 C   0  0  0  0  0  0  0  0  0  0  0  0
   11.9840    1.2710   23.2860 C   0  0  0  0  0  0  0  0  0  0  0  0
   11.9980    0.1380   22.4530 C   0  0  0  0  0  0  0  0  0  0  0  0
   10.7880   -0.4400   22.0330 C   0  0  0  0  0  0  0  0  0  0  0  0
    9.5690    0.1110   22.4580 C   0  0  0  0  0  0  0  0  0  0  0  0
    8.3340   -0.3800   21.9960 N   0  0  0  0  0  0  0  0  0  0  0  0
    7.8930   -0.1940   20.7180 C   0  0  0  0  0  0  0  0  0  0  0  0
    8.6220    0.0620   19.7810 O   0  0  0  0  0  0  0  0  0  0  0  0
    6.5300   -0.2310   20.6080 N   0  0  0  0  0  0  0  0  0  0  0  0
    5.8230    0.3580   19.5340 C   0  0  0  0  0  0  0  0  0  0  0  0
    4.8660    1.3420   19.8120 C   0  0  0  0  0  0  0  0  0  0  0  0
    4.3120    2.0380   18.7300 C   0  0  0  0  0  0  0  0  0  0  0  0
    4.7410    1.7460   17.4270 C   0  0  0  0  0  0  0  0  0  0  0  0
    5.6300    0.7670   17.1460 N   0  0  0  0  0  0  0  0  0  0  0  0
    6.1650    0.1000   18.1890 C   0  0  0  0  0  0  0  0  0  0  0  0
    9.5580    1.2360   23.2900 C   0  0  0  0  0  0  0  0  0  0  0  0
  1  2  1  0
  2  3  1  0
  3  4  2  0
  3  5  1  0
  5  6  1  0
  6  7  1  0
  7  8  1  0
  8 23  2  0
  8  9  1  0
  9 10  2  0
 10 11  1  0
 11 12  2  0
 12 13  1  0
 12 23  1  0
 13 14  1  0
 14 15  2  0
 14 16  1  0
 16 17  1  0
 17 18  2  0
 17 22  1  0
 18 19  1  0
 19 20  2  0
 20 21  1  0
 21 22  2  0
M  END
