WPC1085_minimised.pdb
     RDKit          3D

 23 24  0  0  0  0  0  0  0  0999 V2000
   12.3060    4.8410   22.2060 N   0  0  0  0  0  0  0  0  0  0  0  0
   12.3420    3.8670   23.1570 N   0  0  0  0  0  0  0  0  0  0  0  0
   11.3150    3.2510   23.6480 C   0  0  0  0  0  0  0  0  0  0  0  0
   11.5040    1.8980   24.2860 C   0  0  0  0  0  0  0  0  0  0  0  0
   11.1400    0.7510   23.3670 C   0  0  0  0  0  0  0  0  0  0  0  0
   12.1430   -0.0180   22.7500 C   0  0  0  0  0  0  0  0  0  0  0  0
   11.7940   -1.0960   21.9220 C   0  0  0  0  0  0  0  0  0  0  0  0
   10.4410   -1.3790   21.6810 C   0  0  0  0  0  0  0  0  0  0  0  0
    9.4450   -0.5790   22.2540 C   0  0  0  0  0  0  0  0  0  0  0  0
    8.1060   -0.7080   21.8510 N   0  0  0  0  0  0  0  0  0  0  0  0
    7.6740   -0.2930   20.6240 C   0  0  0  0  0  0  0  0  0  0  0  0
    8.4160    0.0080   19.7100 O   0  0  0  0  0  0  0  0  0  0  0  0
    6.3150   -0.1830   20.5350 N   0  0  0  0  0  0  0  0  0  0  0  0
    5.6460    0.4570   19.4660 C   0  0  0  0  0  0  0  0  0  0  0  0
    4.7070    1.4570   19.7450 C   0  0  0  0  0  0  0  0  0  0  0  0
    4.1810    2.1730   18.6610 C   0  0  0  0  0  0  0  0  0  0  0  0
    4.6230    1.8870   17.3610 C   0  0  0  0  0  0  0  0  0  0  0  0
    5.4980    0.8950   17.0830 N   0  0  0  0  0  0  0  0  0  0  0  0
    6.0010    0.2060   18.1240 C   0  0  0  0  0  0  0  0  0  0  0  0
    9.7910    0.4680   23.1120 C   0  0  0  0  0  0  0  0  0  0  0  0
   10.0080    3.7460   23.7570 N   0  0  0  0  0  0  0  0  0  0  0  0
    9.5040    4.9720   23.2390 N   0  0  0  0  0  0  0  0  0  0  0  0
   10.3160    5.9790   23.8040 O   0  0  0  0  0  0  0  0  0  0  0  0
  1  2  1  0
  2  3  2  0
  3 21  1  0
  3  4  1  0
  4  5  1  0
  5 20  2  0
  5  6  1  0
  6  7  2  0
  7  8  1  0
  8  9  2  0
  9 10  1  0
  9 20  1  0
 10 11  1  0
 11 12  2  0
 11 13  1  0
 13 14  1  0
 14 15  2  0
 14 19  1  0
 15 16  1  0
 16 17  2  0
 17 18  1  0
 18 19  2  0
 21 22  1  0
 22 23  1  0
M  END
