WPC1280_minimised.pdb
     RDKit          3D

 22 23  0  0  1  0  0  0  0  0999 V2000
    9.3710    0.8060   20.8100 O   0  0  0  0  0  0  0  0  0  0  0  0
    8.7870   -0.1580   21.3730 C   0  0  0  0  0  0  0  0  0  0  0  0
    7.5340   -0.5730   21.0430 N   0  0  0  0  0  0  0  0  0  0  0  0
    6.7920   -0.0180   20.0010 C   0  0  0  0  0  0  0  0  0  0  0  0
    5.6030    0.6760   20.2470 C   0  0  0  0  0  0  0  0  0  0  0  0
    4.9380    1.3100   19.1960 C   0  0  0  0  0  0  0  0  0  0  0  0
    5.4640    1.2390   17.8980 C   0  0  0  0  0  0  0  0  0  0  0  0
    6.6010    0.5450   17.6500 N   0  0  0  0  0  0  0  0  0  0  0  0
    7.2640   -0.0360   18.6580 C   0  0  0  0  0  0  0  0  0  0  0  0
    9.4030   -0.8420   22.3700 N   0  0  0  0  0  0  0  0  0  0  0  0
   10.7190   -0.6030   22.8280 C   0  0  0  0  0  0  0  0  0  0  0  0
   11.8190   -1.1520   22.1720 C   0  0  0  0  0  0  0  0  0  0  0  0
   13.1210   -0.6590   22.3230 C   0  0  0  0  0  0  0  0  0  0  0  0
   13.3220    0.3140   23.3680 C   0  0  0  0  0  0  0  0  0  0  0  0
   12.2130    0.9980   23.8660 C   0  0  1  0  0  0  0  0  0  0  0  0
   12.0010    2.3640   22.7330 S   0  0  0  0  0  0  0  0  0  0  0  0
   12.0760    3.9980   23.3980 C   0  0  0  0  0  0  0  0  0  0  0  0
   10.5430    4.6730   23.6360 P   0  0  0  0  0  0  0  0  0  0  0  0
   10.3480    5.7950   24.7700 O   0  0  0  0  0  0  0  0  0  0  0  0
   10.4340    6.1400   23.6730 O   0  0  0  0  0  0  0  0  0  0  0  0
    9.2530    3.8960   23.2270 O   0  0  0  0  0  0  0  0  0  0  0  0
   10.9560    0.3310   23.8870 C   0  0  0  0  0  0  0  0  0  0  0  0
  1  2  2  0
  2 10  1  0
  2  3  1  0
  3  4  1  0
  4  5  2  0
  4  9  1  0
  5  6  1  0
  6  7  2  0
  7  8  1  0
  8  9  2  0
 10 11  1  0
 11 12  2  0
 11 22  1  0
 12 13  1  0
 13 14  1  0
 14 15  1  0
 15 16  1  6
 15 22  1  0
 16 17  1  0
 17 18  1  0
 18 19  2  0
 18 20  1  0
 18 21  1  0
M  END
