WPC1538_minimised.pdb
     RDKit          3D

 23 25  0  0  1  0  0  0  0  0999 V2000
    9.1530    5.0820   23.6730 O   0  0  0  0  0  0  0  0  0  0  0  0
   10.0670    4.2850   23.6900 C   0  0  0  0  0  0  0  0  0  0  0  0
   11.2460    4.1710   22.7500 C   0  0  0  0  0  0  0  0  0  0  0  0
   12.3690    3.5810   23.6180 C   0  0  0  0  0  0  0  0  0  0  0  0
   11.6250    2.9080   24.7880 C   0  0  2  0  0  0  0  0  0  0  0  0
   11.7660    1.3710   24.8690 C   0  0  0  0  0  0  0  0  0  0  0  0
   11.3060    0.6000   23.6520 C   0  0  0  0  0  0  0  0  0  0  0  0
   12.2460   -0.0340   22.8180 C   0  0  0  0  0  0  0  0  0  0  0  0
   11.8110   -0.8680   21.7790 C   0  0  0  0  0  0  0  0  0  0  0  0
   10.4370   -1.0230   21.5490 C   0  0  0  0  0  0  0  0  0  0  0  0
    9.5020   -0.3200   22.3200 C   0  0  0  0  0  0  0  0  0  0  0  0
    8.1400   -0.3250   21.9640 N   0  0  0  0  0  0  0  0  0  0  0  0
    7.6860   -0.0100   20.7140 C   0  0  0  0  0  0  0  0  0  0  0  0
    8.4070    0.1540   19.7480 O   0  0  0  0  0  0  0  0  0  0  0  0
    6.3290    0.1370   20.6480 N   0  0  0  0  0  0  0  0  0  0  0  0
    5.6370    0.6740   19.5380 C   0  0  0  0  0  0  0  0  0  0  0  0
    4.6870    1.6790   19.7520 C   0  0  0  0  0  0  0  0  0  0  0  0
    4.1300    2.2960   18.6260 C   0  0  0  0  0  0  0  0  0  0  0  0
    4.5510    1.9110   17.3450 C   0  0  0  0  0  0  0  0  0  0  0  0
    5.4280    0.9040   17.1280 N   0  0  0  0  0  0  0  0  0  0  0  0
    5.9630    0.3110   18.2130 C   0  0  0  0  0  0  0  0  0  0  0  0
    9.9340    0.4610   23.3940 C   0  0  0  0  0  0  0  0  0  0  0  0
   10.2630    3.3960   24.6980 N   0  0  0  0  0  0  0  0  0  0  0  0
  1  2  2  0
  2 23  1  0
  2  3  1  0
  3  4  1  0
  4  5  1  0
  5  6  1  6
  5 23  1  0
  6  7  1  0
  7 22  1  0
  7  8  2  0
  8  9  1  0
  9 10  2  0
 10 11  1  0
 11 12  1  0
 11 22  2  0
 12 13  1  0
 13 14  2  0
 13 15  1  0
 15 16  1  0
 16 17  2  0
 16 21  1  0
 17 18  1  0
 18 19  2  0
 19 20  1  0
 20 21  2  0
M  END
