WPC1871_minimised.pdb
     RDKit          3D

 22 23  0  0  0  0  0  0  0  0999 V2000
    8.9430    1.3450   20.7800 O   0  0  0  0  0  0  0  0  0  0  0  0
    8.6900    0.1930   21.0940 C   0  0  0  0  0  0  0  0  0  0  0  0
    7.5980   -0.4710   20.6060 N   0  0  0  0  0  0  0  0  0  0  0  0
    6.6670    0.1060   19.7030 C   0  0  0  0  0  0  0  0  0  0  0  0
    5.8350    1.1530   20.1290 C   0  0  0  0  0  0  0  0  0  0  0  0
    4.9940    1.7540   19.1810 C   0  0  0  0  0  0  0  0  0  0  0  0
    5.0280    1.3150   17.8480 C   0  0  0  0  0  0  0  0  0  0  0  0
    5.8120    0.2940   17.4360 N   0  0  0  0  0  0  0  0  0  0  0  0
    6.6220   -0.2810   18.3490 C   0  0  0  0  0  0  0  0  0  0  0  0
    9.4770   -0.5230   21.9600 N   0  0  0  0  0  0  0  0  0  0  0  0
   10.5850    0.0740   22.5910 C   0  0  0  0  0  0  0  0  0  0  0  0
   11.8900   -0.1910   22.1530 C   0  0  0  0  0  0  0  0  0  0  0  0
   12.9350    0.6630   22.5450 C   0  0  0  0  0  0  0  0  0  0  0  0
   12.6540    1.8140   23.3020 C   0  0  0  0  0  0  0  0  0  0  0  0
   11.3450    2.0700   23.7500 C   0  0  0  0  0  0  0  0  0  0  0  0
   10.9840    3.3530   24.4880 C   0  0  0  0  0  0  0  0  0  0  0  0
   10.6340    4.8000   23.4800 S   0  0  0  0  0  0  0  0  0  0  0  0
   10.5700    5.9340   24.3780 O   0  0  0  0  0  0  0  0  0  0  0  0
   11.5260    4.8160   22.3440 O   0  0  0  0  0  0  0  0  0  0  0  0
    9.0890    4.6290   22.8930 N   0  0  0  0  0  0  0  0  0  0  0  0
    8.4500    3.3530   22.6830 O   0  0  0  0  0  0  0  0  0  0  0  0
   10.3360    1.1470   23.4550 C   0  0  0  0  0  0  0  0  0  0  0  0
  1  2  2  0
  2 10  1  0
  2  3  1  0
  3  4  1  0
  4  5  2  0
  4  9  1  0
  5  6  1  0
  6  7  2  0
  7  8  1  0
  8  9  2  0
 10 11  1  0
 11 12  2  0
 11 22  1  0
 12 13  1  0
 13 14  2  0
 14 15  1  0
 15 16  1  0
 15 22  2  0
 16 17  1  0
 17 20  1  0
 17 18  2  0
 17 19  2  0
 20 21  1  0
M  END
