WPC1906_minimised.pdb
     RDKit          3D

 23 24  0  0  0  0  0  0  0  0999 V2000
    9.9400    6.0780   23.3990 C   0  0  0  0  0  0  0  0  0  0  0  0
   10.8810    5.4030   24.4130 C   0  0  0  0  0  0  0  0  0  0  0  0
   12.2520    6.1000   24.5180 C   0  0  0  0  0  0  0  0  0  0  0  0
   11.0110    3.9750   24.1100 N   0  0  0  0  0  0  0  0  0  0  0  0
   11.8710    3.3890   23.2120 C   0  0  0  0  0  0  0  0  0  0  0  0
   12.0820    3.9240   22.0880 N   0  0  0  0  0  0  0  0  0  0  0  0
   12.4930    2.0820   23.6310 C   0  0  0  0  0  0  0  0  0  0  0  0
   11.8900    0.8670   22.9490 C   0  0  0  0  0  0  0  0  0  0  0  0
   12.7240   -0.1420   22.4400 C   0  0  0  0  0  0  0  0  0  0  0  0
   12.1680   -1.2680   21.8180 C   0  0  0  0  0  0  0  0  0  0  0  0
   10.7740   -1.3830   21.6930 C   0  0  0  0  0  0  0  0  0  0  0  0
    9.9410   -0.3670   22.1780 C   0  0  0  0  0  0  0  0  0  0  0  0
    8.5520   -0.4040   21.9390 N   0  0  0  0  0  0  0  0  0  0  0  0
    7.9940   -0.2030   20.7070 C   0  0  0  0  0  0  0  0  0  0  0  0
    8.6350   -0.1390   19.6790 O   0  0  0  0  0  0  0  0  0  0  0  0
    6.6370   -0.0260   20.7310 N   0  0  0  0  0  0  0  0  0  0  0  0
    5.8810    0.4860   19.6480 C   0  0  0  0  0  0  0  0  0  0  0  0
    4.9550    1.5080   19.8920 C   0  0  0  0  0  0  0  0  0  0  0  0
    4.3310    2.1000   18.7880 C   0  0  0  0  0  0  0  0  0  0  0  0
    4.6700    1.6830   17.4930 C   0  0  0  0  0  0  0  0  0  0  0  0
    5.5190    0.6600   17.2490 N   0  0  0  0  0  0  0  0  0  0  0  0
    6.1170    0.0870   18.3130 C   0  0  0  0  0  0  0  0  0  0  0  0
   10.4960    0.7480   22.8170 C   0  0  0  0  0  0  0  0  0  0  0  0
  1  2  1  0
  2  3  1  0
  2  4  1  0
  4  5  1  0
  5  6  2  0
  5  7  1  0
  7  8  1  0
  8 23  2  0
  8  9  1  0
  9 10  2  0
 10 11  1  0
 11 12  2  0
 12 13  1  0
 12 23  1  0
 13 14  1  0
 14 15  2  0
 14 16  1  0
 16 17  1  0
 17 18  2  0
 17 22  1  0
 18 19  1  0
 19 20  2  0
 20 21  1  0
 21 22  2  0
M  END
