WPC1301_minimised.pdb
     RDKit          3D

 17 18  0  0  0  0  0  0  0  0999 V2000
   11.5930    2.4240   24.3850 N   0  0  0  0  0  0  0  0  0  0  0  0
   11.3840    1.3340   23.5790 C   0  0  0  0  0  0  0  0  0  0  0  0
   12.4590    0.7060   22.9380 C   0  0  0  0  0  0  0  0  0  0  0  0
   12.2230   -0.3790   22.0770 C   0  0  0  0  0  0  0  0  0  0  0  0
   10.9040   -0.8000   21.8370 C   0  0  0  0  0  0  0  0  0  0  0  0
    9.8310   -0.1430   22.4580 C   0  0  0  0  0  0  0  0  0  0  0  0
    8.4980   -0.4210   22.0980 N   0  0  0  0  0  0  0  0  0  0  0  0
    8.0020   -0.2080   20.8420 C   0  0  0  0  0  0  0  0  0  0  0  0
    8.6940   -0.0390   19.8590 O   0  0  0  0  0  0  0  0  0  0  0  0
    6.6370   -0.1320   20.7890 N   0  0  0  0  0  0  0  0  0  0  0  0
    5.9180    0.4140   19.6970 C   0  0  0  0  0  0  0  0  0  0  0  0
    4.9840    1.4280   19.9400 C   0  0  0  0  0  0  0  0  0  0  0  0
    4.4020    2.0590   18.8330 C   0  0  0  0  0  0  0  0  0  0  0  0
    4.7830    1.6770   17.5380 C   0  0  0  0  0  0  0  0  0  0  0  0
    5.6470    0.6670   17.2930 N   0  0  0  0  0  0  0  0  0  0  0  0
    6.2090    0.0630   18.3600 C   0  0  0  0  0  0  0  0  0  0  0  0
   10.0760    0.9010   23.3570 C   0  0  0  0  0  0  0  0  0  0  0  0
  1  2  1  0
  2 17  2  0
  2  3  1  0
  3  4  2  0
  4  5  1  0
  5  6  2  0
  6  7  1  0
  6 17  1  0
  7  8  1  0
  8  9  2  0
  8 10  1  0
 10 11  1  0
 11 12  2  0
 11 16  1  0
 12 13  1  0
 13 14  2  0
 14 15  1  0
 15 16  2  0
M  END
