WPC1664_minimised.pdb
     RDKit          3D

 23 25  0  0  0  0  0  0  0  0999 V2000
    8.6410    0.2960   19.8940 O   0  0  0  0  0  0  0  0  0  0  0  0
    7.9660   -0.1920   20.7770 C   0  0  0  0  0  0  0  0  0  0  0  0
    6.6150   -0.3610   20.6530 N   0  0  0  0  0  0  0  0  0  0  0  0
    5.8680    0.2320   19.6070 C   0  0  0  0  0  0  0  0  0  0  0  0
    4.9200    1.2150   19.9150 C   0  0  0  0  0  0  0  0  0  0  0  0
    4.3350    1.9120   18.8490 C   0  0  0  0  0  0  0  0  0  0  0  0
    4.7190    1.6130   17.5330 C   0  0  0  0  0  0  0  0  0  0  0  0
    5.6080    0.6410   17.2280 N   0  0  0  0  0  0  0  0  0  0  0  0
    6.1810   -0.0180   18.2550 C   0  0  0  0  0  0  0  0  0  0  0  0
    8.4570   -0.5370   22.0030 N   0  0  0  0  0  0  0  0  0  0  0  0
    9.6690   -0.0280   22.5070 C   0  0  0  0  0  0  0  0  0  0  0  0
   10.9120   -0.4730   22.0300 C   0  0  0  0  0  0  0  0  0  0  0  0
   12.0920    0.1530   22.4680 C   0  0  0  0  0  0  0  0  0  0  0  0
   12.0260    1.2290   23.3710 C   0  0  0  0  0  0  0  0  0  0  0  0
   10.7780    1.6670   23.8500 C   0  0  0  0  0  0  0  0  0  0  0  0
   10.6590    2.8230   24.8210 C   0  0  0  0  0  0  0  0  0  0  0  0
   10.1950    4.3900   23.9790 S   0  0  0  0  0  0  0  0  0  0  0  0
   11.7580    4.8690   23.3480 C   0  0  0  0  0  0  0  0  0  0  0  0
   12.0000    4.8900   22.0180 N   0  0  0  0  0  0  0  0  0  0  0  0
   13.3340    5.0510   21.8460 N   0  0  0  0  0  0  0  0  0  0  0  0
   13.8340    5.0250   23.0530 N   0  0  0  0  0  0  0  0  0  0  0  0
   12.8760    4.8720   24.0240 N   0  0  0  0  0  0  0  0  0  0  0  0
    9.6060    1.0310   23.4190 C   0  0  0  0  0  0  0  0  0  0  0  0
  1  2  2  0
  2  3  1  0
  2 10  1  0
  3  4  1  0
  4  5  2  0
  4  9  1  0
  5  6  1  0
  6  7  2  0
  7  8  1  0
  8  9  2  0
 10 11  1  0
 11 23  1  0
 11 12  2  0
 12 13  1  0
 13 14  2  0
 14 15  1  0
 15 16  1  0
 15 23  2  0
 16 17  1  0
 17 18  1  0
 18 19  1  0
 18 22  2  0
 19 20  1  0
 20 21  2  0
 21 22  1  0
M  END
