WPC1305_minimised.pdb
     RDKit          3D

 20 21  0  0  0  0  0  0  0  0999 V2000
   12.7750    5.2330   23.0040 C   0  0  0  0  0  0  0  0  0  0  0  0
   11.3210    5.2360   22.7660 N   0  0  0  0  0  0  0  0  0  0  0  0
   10.4470    4.7740   23.8590 C   0  0  0  0  0  0  0  0  0  0  0  0
   10.8730    3.4400   24.5120 C   0  0  0  0  0  0  0  0  0  0  0  0
   10.8420    2.2090   23.6180 C   0  0  0  0  0  0  0  0  0  0  0  0
   12.0300    1.5740   23.2090 C   0  0  0  0  0  0  0  0  0  0  0  0
   11.9800    0.4130   22.4180 C   0  0  0  0  0  0  0  0  0  0  0  0
   10.7390   -0.1240   22.0400 C   0  0  0  0  0  0  0  0  0  0  0  0
    9.5540    0.4960   22.4670 C   0  0  0  0  0  0  0  0  0  0  0  0
    8.2920    0.0180   22.0670 N   0  0  0  0  0  0  0  0  0  0  0  0
    7.8500    0.0410   20.7770 C   0  0  0  0  0  0  0  0  0  0  0  0
    8.5770    0.1700   19.8120 O   0  0  0  0  0  0  0  0  0  0  0  0
    6.4870   -0.0020   20.6750 N   0  0  0  0  0  0  0  0  0  0  0  0
    5.7760    0.5090   19.5660 C   0  0  0  0  0  0  0  0  0  0  0  0
    4.8100    1.4980   19.7900 C   0  0  0  0  0  0  0  0  0  0  0  0
    4.2510    2.1270   18.6720 C   0  0  0  0  0  0  0  0  0  0  0  0
    4.6830    1.7670   17.3880 C   0  0  0  0  0  0  0  0  0  0  0  0
    5.5760    0.7780   17.1600 N   0  0  0  0  0  0  0  0  0  0  0  0
    6.1170    0.1740   18.2380 C   0  0  0  0  0  0  0  0  0  0  0  0
    9.6070    1.6540   23.2520 C   0  0  0  0  0  0  0  0  0  0  0  0
  1  2  1  0
  2  3  1  0
  3  4  1  0
  4  5  1  0
  5 20  2  0
  5  6  1  0
  6  7  2  0
  7  8  1  0
  8  9  2  0
  9 10  1  0
  9 20  1  0
 10 11  1  0
 11 12  2  0
 11 13  1  0
 13 14  1  0
 14 15  2  0
 14 19  1  0
 15 16  1  0
 16 17  2  0
 17 18  1  0
 18 19  2  0
M  END
