WPC1066_minimised.pdb
     RDKit          3D

 23 24  0  0  0  0  0  0  0  0999 V2000
   12.7820    5.6850   23.7120 O   0  0  0  0  0  0  0  0  0  0  0  0
   13.4050    5.2890   22.7410 C   0  0  0  0  0  0  0  0  0  0  0  0
   13.9630    6.1710   21.8800 O   0  0  0  0  0  0  0  0  0  0  0  0
   13.6830    3.8570   22.4030 C   0  0  0  0  0  0  0  0  0  0  0  0
   13.2730    2.9170   23.1890 N   0  0  0  0  0  0  0  0  0  0  0  0
   13.9830    1.7270   22.9720 O   0  0  0  0  0  0  0  0  0  0  0  0
   13.4890    0.6050   23.7130 C   0  0  0  0  0  0  0  0  0  0  0  0
   12.0680    0.2550   23.3100 C   0  0  0  0  0  0  0  0  0  0  0  0
   11.8320   -0.6240   22.2400 C   0  0  0  0  0  0  0  0  0  0  0  0
   10.5160   -0.9020   21.8450 C   0  0  0  0  0  0  0  0  0  0  0  0
    9.4380   -0.2970   22.5090 C   0  0  0  0  0  0  0  0  0  0  0  0
    8.1250   -0.4380   22.0210 N   0  0  0  0  0  0  0  0  0  0  0  0
    7.7510   -0.1490   20.7390 C   0  0  0  0  0  0  0  0  0  0  0  0
    8.5280    0.0470   19.8240 O   0  0  0  0  0  0  0  0  0  0  0  0
    6.3950   -0.0470   20.5960 N   0  0  0  0  0  0  0  0  0  0  0  0
    5.7450    0.5390   19.4850 C   0  0  0  0  0  0  0  0  0  0  0  0
    4.7720    1.5190   19.7130 C   0  0  0  0  0  0  0  0  0  0  0  0
    4.2520    2.1910   18.6000 C   0  0  0  0  0  0  0  0  0  0  0  0
    4.7310    1.8830   17.3200 C   0  0  0  0  0  0  0  0  0  0  0  0
    5.6310    0.9010   17.0850 N   0  0  0  0  0  0  0  0  0  0  0  0
    6.1330    0.2560   18.1580 C   0  0  0  0  0  0  0  0  0  0  0  0
    9.6700    0.5430   23.6060 C   0  0  0  0  0  0  0  0  0  0  0  0
   10.9840    0.8180   24.0080 C   0  0  0  0  0  0  0  0  0  0  0  0
  1  2  2  0
  2  3  1  0
  2  4  1  0
  4  5  2  0
  5  6  1  0
  6  7  1  0
  7  8  1  0
  8 23  2  0
  8  9  1  0
  9 10  2  0
 10 11  1  0
 11 12  1  0
 11 22  2  0
 12 13  1  0
 13 14  2  0
 13 15  1  0
 15 16  1  0
 16 17  2  0
 16 21  1  0
 17 18  1  0
 18 19  2  0
 19 20  1  0
 20 21  2  0
 22 23  1  0
M  END
