WPC1884_minimised.pdb
     RDKit          3D

 21 22  0  0  1  0  0  0  0  0999 V2000
   12.7740    4.8740   23.6250 C   0  0  0  0  0  0  0  0  0  0  0  0
   11.2400    4.9030   23.4670 C   0  0  2  0  0  0  0  0  0  0  0  0
   10.8150    6.2340   23.7470 O   0  0  0  0  0  0  0  0  0  0  0  0
   10.4570    3.9740   24.4230 C   0  0  0  0  0  0  0  0  0  0  0  0
   11.0330    2.5620   24.6890 C   0  0  0  0  0  0  0  0  0  0  0  0
   10.8930    1.5350   23.5850 C   0  0  0  0  0  0  0  0  0  0  0  0
   12.0280    0.9130   23.0340 C   0  0  0  0  0  0  0  0  0  0  0  0
   11.8800   -0.1370   22.1120 C   0  0  0  0  0  0  0  0  0  0  0  0
   10.5940   -0.5610   21.7400 C   0  0  0  0  0  0  0  0  0  0  0  0
    9.4640    0.0690   22.2810 C   0  0  0  0  0  0  0  0  0  0  0  0
    8.1640   -0.2700   21.8660 N   0  0  0  0  0  0  0  0  0  0  0  0
    7.7200   -0.1200   20.5850 C   0  0  0  0  0  0  0  0  0  0  0  0
    8.4480    0.0080   19.6210 O   0  0  0  0  0  0  0  0  0  0  0  0
    6.3580   -0.0390   20.5050 N   0  0  0  0  0  0  0  0  0  0  0  0
    5.6670    0.5410   19.4170 C   0  0  0  0  0  0  0  0  0  0  0  0
    4.7200    1.5400   19.6760 C   0  0  0  0  0  0  0  0  0  0  0  0
    4.1700    2.2150   18.5800 C   0  0  0  0  0  0  0  0  0  0  0  0
    4.5970    1.8930   17.2840 C   0  0  0  0  0  0  0  0  0  0  0  0
    5.4770    0.9010   17.0240 N   0  0  0  0  0  0  0  0  0  0  0  0
    6.0030    0.2480   18.0790 C   0  0  0  0  0  0  0  0  0  0  0  0
    9.6130    1.1050   23.2080 C   0  0  0  0  0  0  0  0  0  0  0  0
  2  1  1  1
  2  3  1  0
  2  4  1  0
  4  5  1  0
  5  6  1  0
  6 21  2  0
  6  7  1  0
  7  8  2  0
  8  9  1  0
  9 10  2  0
 10 11  1  0
 10 21  1  0
 11 12  1  0
 12 13  2  0
 12 14  1  0
 14 15  1  0
 15 16  2  0
 15 20  1  0
 16 17  1  0
 17 18  2  0
 18 19  1  0
 19 20  2  0
M  END
