WPC1927_minimised.pdb
     RDKit          3D

 24 26  0  0  0  0  0  0  0  0999 V2000
    8.4740    0.0650   19.7860 O   0  0  0  0  0  0  0  0  0  0  0  0
    7.7340   -0.3080   20.6750 C   0  0  0  0  0  0  0  0  0  0  0  0
    6.3730   -0.2390   20.5740 N   0  0  0  0  0  0  0  0  0  0  0  0
    5.7000    0.4030   19.5090 C   0  0  0  0  0  0  0  0  0  0  0  0
    4.7570    1.3990   19.7900 C   0  0  0  0  0  0  0  0  0  0  0  0
    4.2260    2.1130   18.7070 C   0  0  0  0  0  0  0  0  0  0  0  0
    4.6620    1.8250   17.4050 C   0  0  0  0  0  0  0  0  0  0  0  0
    5.5440    0.8390   17.1250 N   0  0  0  0  0  0  0  0  0  0  0  0
    6.0560    0.1560   18.1660 C   0  0  0  0  0  0  0  0  0  0  0  0
    8.1710   -0.7720   21.8820 N   0  0  0  0  0  0  0  0  0  0  0  0
    9.5030   -0.6200   22.2970 C   0  0  0  0  0  0  0  0  0  0  0  0
   10.5040   -1.4860   21.8350 C   0  0  0  0  0  0  0  0  0  0  0  0
   11.8550   -1.1970   22.0920 C   0  0  0  0  0  0  0  0  0  0  0  0
   12.1950   -0.0360   22.8070 C   0  0  0  0  0  0  0  0  0  0  0  0
   11.1830    0.8040   23.2920 C   0  0  0  0  0  0  0  0  0  0  0  0
   11.5890    2.3100   24.1160 S   0  0  0  0  0  0  0  0  0  0  0  0
   10.8580    3.5350   22.9600 C   0  0  0  0  0  0  0  0  0  0  0  0
   11.5670    4.8190   23.2710 C   0  0  0  0  0  0  0  0  0  0  0  0
   10.9800    5.7360   24.3090 C   0  0  0  0  0  0  0  0  0  0  0  0
   12.2120    6.5570   24.5980 C   0  0  0  0  0  0  0  0  0  0  0  0
   12.3420    7.4450   25.4130 O   0  0  0  0  0  0  0  0  0  0  0  0
   13.1750    6.1270   23.7340 N   0  0  0  0  0  0  0  0  0  0  0  0
   12.7860    5.0720   22.9690 N   0  0  0  0  0  0  0  0  0  0  0  0
    9.8400    0.5120   23.0410 C   0  0  0  0  0  0  0  0  0  0  0  0
  1  2  2  0
  2  3  1  0
  2 10  1  0
  3  4  1  0
  4  5  2  0
  4  9  1  0
  5  6  1  0
  6  7  2  0
  7  8  1  0
  8  9  2  0
 10 11  1  0
 11 24  1  0
 11 12  2  0
 12 13  1  0
 13 14  2  0
 14 15  1  0
 15 16  1  0
 15 24  2  0
 16 17  1  0
 17 18  1  0
 18 19  1  0
 18 23  2  0
 19 20  1  0
 20 21  2  0
 20 22  1  0
 22 23  1  0
M  END
