WPC1088_minimised.pdb
     RDKit          3D

 24 25  0  0  0  0  0  0  0  0999 V2000
    8.5680    4.4550   23.2360 N   0  0  0  0  0  0  0  0  0  0  0  0
    9.6130    5.4510   23.3170 C   0  0  0  0  0  0  0  0  0  0  0  0
   10.5960    5.0790   22.2090 C   0  0  0  0  0  0  0  0  0  0  0  0
   11.1670    3.8140   22.3300 O   0  0  0  0  0  0  0  0  0  0  0  0
   12.3350    3.5070   23.3330 P   0  0  2  0  0  0  0  0  0  0  0  0
   13.3680    4.6390   23.8020 O   0  0  0  0  0  0  0  0  0  0  0  0
   13.6890    4.0310   22.7880 O   0  0  0  0  0  0  0  0  0  0  0  0
   11.8940    2.0170   24.3640 C   0  0  0  0  0  0  0  0  0  0  0  0
   11.7640    0.8370   23.4030 C   0  0  0  0  0  0  0  0  0  0  0  0
   12.8930    0.4240   22.8340 C   0  0  0  0  0  0  0  0  0  0  0  0
   12.8780   -0.7130   21.9060 C   0  0  0  0  0  0  0  0  0  0  0  0
   11.6480   -1.2850   21.6380 C   0  0  0  0  0  0  0  0  0  0  0  0
   10.4480   -0.7130   22.1410 C   0  0  0  0  0  0  0  0  0  0  0  0
    9.2050   -1.0940   21.6950 N   0  0  0  0  0  0  0  0  0  0  0  0
    8.5170   -0.3140   20.8240 C   0  0  0  0  0  0  0  0  0  0  0  0
    8.9820    0.6360   20.2270 O   0  0  0  0  0  0  0  0  0  0  0  0
    7.2020   -0.7470   20.7480 N   0  0  0  0  0  0  0  0  0  0  0  0
    6.3640   -0.1350   19.8060 C   0  0  0  0  0  0  0  0  0  0  0  0
    5.3690    0.7620   20.2350 C   0  0  0  0  0  0  0  0  0  0  0  0
    4.7570    1.5780   19.2590 C   0  0  0  0  0  0  0  0  0  0  0  0
    5.1650    1.4440   17.9050 C   0  0  0  0  0  0  0  0  0  0  0  0
    6.0620    0.5100   17.4840 N   0  0  0  0  0  0  0  0  0  0  0  0
    6.7040   -0.1830   18.4450 C   0  0  0  0  0  0  0  0  0  0  0  0
   10.4780    0.2850   23.1310 C   0  0  0  0  0  0  0  0  0  0  0  0
  1  2  1  0
  2  3  1  0
  3  4  1  0
  5  4  1  0
  5  6  2  0
  5  7  1  6
  5  8  1  0
  8  9  1  0
  9 24  2  0
  9 10  1  0
 10 11  2  0
 11 12  1  0
 12 13  2  0
 13 14  1  0
 13 24  1  0
 14 15  1  0
 15 16  2  0
 15 17  1  0
 17 18  1  0
 18 19  2  0
 18 23  1  0
 19 20  1  0
 20 21  2  0
 21 22  1  0
 22 23  2  0
M  END
