WPC1032_minimised.pdb
     RDKit          3D

 21 22  0  0  0  0  0  0  0  0999 V2000
   11.7440    5.1230   23.0130 C   0  0  0  0  0  0  0  0  0  0  0  0
   11.7090    3.5970   23.2350 C   0  0  0  0  0  0  0  0  0  0  0  0
   13.1020    2.9570   23.3240 C   0  0  0  0  0  0  0  0  0  0  0  0
   14.1060    3.6470   23.2590 O   0  0  0  0  0  0  0  0  0  0  0  0
   13.2090    1.4390   23.5810 C   0  0  0  0  0  0  0  0  0  0  0  0
   11.9420    0.6560   23.2900 C   0  0  0  0  0  0  0  0  0  0  0  0
   11.8420   -0.0850   22.1040 C   0  0  0  0  0  0  0  0  0  0  0  0
   10.6140   -0.6490   21.7440 C   0  0  0  0  0  0  0  0  0  0  0  0
    9.4780   -0.4460   22.5430 C   0  0  0  0  0  0  0  0  0  0  0  0
    8.1880   -0.7140   22.0390 N   0  0  0  0  0  0  0  0  0  0  0  0
    7.7600   -0.3270   20.7940 C   0  0  0  0  0  0  0  0  0  0  0  0
    8.4940    0.0150   19.8860 O   0  0  0  0  0  0  0  0  0  0  0  0
    6.3990   -0.2920   20.6730 N   0  0  0  0  0  0  0  0  0  0  0  0
    5.7290    0.3340   19.5940 C   0  0  0  0  0  0  0  0  0  0  0  0
    4.8040    1.3510   19.8590 C   0  0  0  0  0  0  0  0  0  0  0  0
    4.2830    2.0580   18.7670 C   0  0  0  0  0  0  0  0  0  0  0  0
    4.7060    1.7380   17.4680 C   0  0  0  0  0  0  0  0  0  0  0  0
    5.5670    0.7300   17.2020 N   0  0  0  0  0  0  0  0  0  0  0  0
    6.0760    0.0590   18.2540 C   0  0  0  0  0  0  0  0  0  0  0  0
    9.6100    0.1780   23.7910 C   0  0  0  0  0  0  0  0  0  0  0  0
   10.8490    0.7090   24.1760 C   0  0  0  0  0  0  0  0  0  0  0  0
  1  2  1  0
  2  3  1  0
  3  4  2  0
  3  5  1  0
  5  6  1  0
  6 21  2  0
  6  7  1  0
  7  8  2  0
  8  9  1  0
  9 10  1  0
  9 20  2  0
 10 11  1  0
 11 12  2  0
 11 13  1  0
 13 14  1  0
 14 15  2  0
 14 19  1  0
 15 16  1  0
 16 17  2  0
 17 18  1  0
 18 19  2  0
 20 21  1  0
M  END
