WPC1798_minimised.pdb
     RDKit          3D

 17 18  0  0  0  0  0  0  0  0999 V2000
   12.0330    2.9450   23.2230 C   0  0  0  0  0  0  0  0  0  0  0  0
   11.6490    1.5330   22.8210 C   0  0  0  0  0  0  0  0  0  0  0  0
   12.6290    0.5480   22.5990 C   0  0  0  0  0  0  0  0  0  0  0  0
   12.2530   -0.7370   22.1700 C   0  0  0  0  0  0  0  0  0  0  0  0
   10.8960   -1.0430   21.9780 C   0  0  0  0  0  0  0  0  0  0  0  0
    9.9180   -0.0640   22.2070 C   0  0  0  0  0  0  0  0  0  0  0  0
    8.5590   -0.3190   21.9380 N   0  0  0  0  0  0  0  0  0  0  0  0
    7.9960   -0.1380   20.7070 C   0  0  0  0  0  0  0  0  0  0  0  0
    8.6460    0.0350   19.6960 O   0  0  0  0  0  0  0  0  0  0  0  0
    6.6270   -0.0990   20.7100 N   0  0  0  0  0  0  0  0  0  0  0  0
    5.8590    0.4290   19.6430 C   0  0  0  0  0  0  0  0  0  0  0  0
    4.9160    1.4280   19.9140 C   0  0  0  0  0  0  0  0  0  0  0  0
    4.3060    2.0630   18.8250 C   0  0  0  0  0  0  0  0  0  0  0  0
    4.6670    1.6990   17.5190 C   0  0  0  0  0  0  0  0  0  0  0  0
    5.5340    0.6980   17.2480 N   0  0  0  0  0  0  0  0  0  0  0  0
    6.1220    0.0890   18.2970 C   0  0  0  0  0  0  0  0  0  0  0  0
   10.2960    1.2200   22.6240 C   0  0  0  0  0  0  0  0  0  0  0  0
  1  2  1  0
  2 17  2  0
  2  3  1  0
  3  4  2  0
  4  5  1  0
  5  6  2  0
  6  7  1  0
  6 17  1  0
  7  8  1  0
  8  9  2  0
  8 10  1  0
 10 11  1  0
 11 12  2  0
 11 16  1  0
 12 13  1  0
 13 14  2  0
 14 15  1  0
 15 16  2  0
M  END
