WPC1585_minimised.pdb
     RDKit          3D

 21 22  0  0  0  0  0  0  0  0999 V2000
    9.4500    0.6440   20.7740 O   0  0  0  0  0  0  0  0  0  0  0  0
    8.8280   -0.2850   21.2980 C   0  0  0  0  0  0  0  0  0  0  0  0
    7.5310   -0.5980   21.0100 N   0  0  0  0  0  0  0  0  0  0  0  0
    6.7980   -0.0110   19.9620 C   0  0  0  0  0  0  0  0  0  0  0  0
    5.5810    0.6460   20.1820 C   0  0  0  0  0  0  0  0  0  0  0  0
    4.9420    1.2610   19.1420 C   0  0  0  0  0  0  0  0  0  0  0  0
    5.5090    1.2380   17.8480 C   0  0  0  0  0  0  0  0  0  0  0  0
    6.6700    0.5740   17.6040 N   0  0  0  0  0  0  0  0  0  0  0  0
    7.3120    0.0060   18.6330 C   0  0  0  0  0  0  0  0  0  0  0  0
    9.4010   -1.0820   22.2860 N   0  0  0  0  0  0  0  0  0  0  0  0
   10.6770   -0.8200   22.8330 C   0  0  0  0  0  0  0  0  0  0  0  0
   11.8470   -1.0710   22.0490 C   0  0  0  0  0  0  0  0  0  0  0  0
   13.0390   -0.3760   22.3760 C   0  0  0  0  0  0  0  0  0  0  0  0
   13.0190    0.6670   23.3420 C   0  0  0  0  0  0  0  0  0  0  0  0
   11.7870    0.9950   23.8620 C   0  0  0  0  0  0  0  0  0  0  0  0
   10.8820    2.3130   24.0680 S   0  0  0  0  0  0  0  0  0  0  0  0
   11.9890    4.2620   23.5620 S   0  0  0  0  0  0  0  0  0  0  0  0
   11.3380    5.2500   24.1640 O   0  0  0  0  0  0  0  0  0  0  0  0
   13.2620    4.4210   22.8990 O   0  0  0  0  0  0  0  0  0  0  0  0
   11.8400    4.8900   24.9740 O   0  0  0  0  0  0  0  0  0  0  0  0
   10.7980    0.0230   23.9350 C   0  0  0  0  0  0  0  0  0  0  0  0
  1  2  2  0
  2 10  1  0
  2  3  1  0
  3  4  1  0
  4  5  2  0
  4  9  1  0
  5  6  1  0
  6  7  2  0
  7  8  1  0
  8  9  2  0
 10 11  1  0
 11 12  2  0
 11 21  1  0
 12 13  1  0
 13 14  2  0
 14 15  1  0
 15 16  1  0
 15 21  2  0
 16 17  1  0
 17 18  2  0
 17 19  2  0
 17 20  1  0
M  END
