WPC1740_minimised.pdb
     RDKit          3D

 24 25  0  0  0  0  0  0  0  0999 V2000
    4.3900    4.8560   21.2760 N   0  0  0  0  0  0  0  0  0  0  0  0
    5.0750    3.5930   21.0440 C   0  0  0  0  0  0  0  0  0  0  0  0
    6.2490    3.3310   22.0000 C   0  0  0  0  0  0  0  0  0  0  0  0
    7.3840    4.3700   21.9290 C   0  0  0  0  0  0  0  0  0  0  0  0
    8.4930    3.9020   22.7680 N   0  0  0  0  0  0  0  0  0  0  0  0
    9.4310    4.9300   23.2260 C   0  0  0  0  0  0  0  0  0  0  0  0
   10.4370    4.3310   24.2340 C   0  0  0  0  0  0  0  0  0  0  0  0
   12.0130    3.7420   23.4650 S   0  0  0  0  0  0  0  0  0  0  0  0
   11.9040    1.9840   23.1170 C   0  0  0  0  0  0  0  0  0  0  0  0
   13.0910    1.2660   22.8950 C   0  0  0  0  0  0  0  0  0  0  0  0
   13.0480   -0.0680   22.4520 C   0  0  0  0  0  0  0  0  0  0  0  0
   11.8100   -0.6940   22.2230 C   0  0  0  0  0  0  0  0  0  0  0  0
   10.6220    0.0120   22.4590 C   0  0  0  0  0  0  0  0  0  0  0  0
    9.3770   -0.5310   22.0660 N   0  0  0  0  0  0  0  0  0  0  0  0
    8.5960    0.0390   21.0940 C   0  0  0  0  0  0  0  0  0  0  0  0
    8.9190    1.0570   20.5120 O   0  0  0  0  0  0  0  0  0  0  0  0
    7.4230   -0.6080   20.7900 N   0  0  0  0  0  0  0  0  0  0  0  0
    6.5580   -0.1510   19.7600 C   0  0  0  0  0  0  0  0  0  0  0  0
    5.3710    0.5140   20.0880 C   0  0  0  0  0  0  0  0  0  0  0  0
    4.6520    1.1380   19.0530 C   0  0  0  0  0  0  0  0  0  0  0  0
    5.1290    1.0640   17.7390 C   0  0  0  0  0  0  0  0  0  0  0  0
    6.2400    0.3770   17.4090 N   0  0  0  0  0  0  0  0  0  0  0  0
    6.9550   -0.1840   18.4070 C   0  0  0  0  0  0  0  0  0  0  0  0
   10.6760    1.3290   22.9430 C   0  0  0  0  0  0  0  0  0  0  0  0
  1  2  1  0
  2  3  1  0
  3  4  1  0
  4  5  1  0
  5  6  1  0
  6  7  1  0
  7  8  1  0
  8  9  1  0
  9 24  2  0
  9 10  1  0
 10 11  2  0
 11 12  1  0
 12 13  2  0
 13 14  1  0
 13 24  1  0
 14 15  1  0
 15 16  2  0
 15 17  1  0
 17 18  1  0
 18 19  2  0
 18 23  1  0
 19 20  1  0
 20 21  2  0
 21 22  1  0
 22 23  2  0
M  END
