WPC1108_minimised.pdb
     RDKit          3D

 23 24  0  0  1  0  0  0  0  0999 V2000
   12.5860    6.1450   24.6350 C   0  0  0  0  0  0  0  0  0  0  0  0
   12.5970    5.1170   23.4810 C   0  0  0  0  0  0  0  0  0  0  0  0
   13.6620    5.4320   22.4110 C   0  0  0  0  0  0  0  0  0  0  0  0
   11.2580    5.0110   22.8820 N   0  0  0  0  0  0  0  0  0  0  0  0
   10.1780    4.4310   23.7080 C   0  0  1  0  0  0  0  0  0  0  0  0
    8.8990    4.3370   22.8510 C   0  0  0  0  0  0  0  0  0  0  0  0
   10.5510    3.0860   24.4090 C   0  0  0  0  0  0  0  0  0  0  0  0
   10.7190    1.8620   23.5210 C   0  0  0  0  0  0  0  0  0  0  0  0
   11.9870    1.3940   23.1260 C   0  0  0  0  0  0  0  0  0  0  0  0
   12.1000    0.2320   22.3410 C   0  0  0  0  0  0  0  0  0  0  0  0
   10.9450   -0.4620   21.9390 C   0  0  0  0  0  0  0  0  0  0  0  0
    9.6850   -0.0040   22.3510 C   0  0  0  0  0  0  0  0  0  0  0  0
    8.4900   -0.5900   21.8970 N   0  0  0  0  0  0  0  0  0  0  0  0
    8.0050   -0.3500   20.6450 C   0  0  0  0  0  0  0  0  0  0  0  0
    8.6960   -0.0340   19.6980 O   0  0  0  0  0  0  0  0  0  0  0  0
    6.6390   -0.3890   20.5770 N   0  0  0  0  0  0  0  0  0  0  0  0
    5.9080    0.2420   19.5420 C   0  0  0  0  0  0  0  0  0  0  0  0
    4.9920    1.2480   19.8710 C   0  0  0  0  0  0  0  0  0  0  0  0
    4.4200    1.9790   18.8210 C   0  0  0  0  0  0  0  0  0  0  0  0
    4.7940    1.7000   17.4990 C   0  0  0  0  0  0  0  0  0  0  0  0
    5.6480    0.7040   17.1740 N   0  0  0  0  0  0  0  0  0  0  0  0
    6.1990    0.0020   18.1840 C   0  0  0  0  0  0  0  0  0  0  0  0
    9.5780    1.1370   23.1500 C   0  0  0  0  0  0  0  0  0  0  0  0
  1  2  1  0
  2  3  1  0
  2  4  1  0
  4  5  1  0
  5  6  1  6
  5  7  1  0
  7  8  1  0
  8 23  2  0
  8  9  1  0
  9 10  2  0
 10 11  1  0
 11 12  2  0
 12 13  1  0
 12 23  1  0
 13 14  1  0
 14 15  2  0
 14 16  1  0
 16 17  1  0
 17 18  2  0
 17 22  1  0
 18 19  1  0
 19 20  2  0
 20 21  1  0
 21 22  2  0
M  END
