WPC1647_minimised.pdb
     RDKit          3D

 24 25  0  0  1  0  0  0  0  0999 V2000
   13.8970    5.2440   21.5750 C   0  0  0  0  0  0  0  0  0  0  0  0
   13.9390    4.4250   22.8740 C   0  0  0  0  0  0  0  0  0  0  0  0
   12.6220    3.9570   23.2020 O   0  0  0  0  0  0  0  0  0  0  0  0
   11.6510    4.8160   23.6310 C   0  0  0  0  0  0  0  0  0  0  0  0
   11.8600    5.9840   23.9180 O   0  0  0  0  0  0  0  0  0  0  0  0
   10.3430    4.0840   24.0400 C   0  0  1  0  0  0  0  0  0  0  0  0
    9.2680    4.0520   23.0120 N   0  0  0  0  0  0  0  0  0  0  0  0
   10.6040    2.6760   24.6460 C   0  0  0  0  0  0  0  0  0  0  0  0
   10.7030    1.5100   23.6700 C   0  0  0  0  0  0  0  0  0  0  0  0
   11.9420    0.9680   23.2730 C   0  0  0  0  0  0  0  0  0  0  0  0
   11.9860   -0.1370   22.4040 C   0  0  0  0  0  0  0  0  0  0  0  0
   10.7910   -0.7130   21.9390 C   0  0  0  0  0  0  0  0  0  0  0  0
    9.5600   -0.1810   22.3490 C   0  0  0  0  0  0  0  0  0  0  0  0
    8.3410   -0.6600   21.8400 N   0  0  0  0  0  0  0  0  0  0  0  0
    7.8820   -0.3230   20.6010 C   0  0  0  0  0  0  0  0  0  0  0  0
    8.5900    0.0730   19.6980 O   0  0  0  0  0  0  0  0  0  0  0  0
    6.5200   -0.3740   20.5010 N   0  0  0  0  0  0  0  0  0  0  0  0
    5.8030    0.2780   19.4710 C   0  0  0  0  0  0  0  0  0  0  0  0
    4.8770    1.2750   19.8030 C   0  0  0  0  0  0  0  0  0  0  0  0
    4.3220    2.0210   18.7550 C   0  0  0  0  0  0  0  0  0  0  0  0
    4.7190    1.7630   17.4340 C   0  0  0  0  0  0  0  0  0  0  0  0
    5.5840    0.7770   17.1070 N   0  0  0  0  0  0  0  0  0  0  0  0
    6.1210    0.0630   18.1150 C   0  0  0  0  0  0  0  0  0  0  0  0
    9.5200    0.9200   23.2090 C   0  0  0  0  0  0  0  0  0  0  0  0
  1  2  1  0
  2  3  1  0
  3  4  1  0
  4  5  2  0
  4  6  1  0
  6  7  1  6
  6  8  1  0
  8  9  1  0
  9 24  2  0
  9 10  1  0
 10 11  2  0
 11 12  1  0
 12 13  2  0
 13 14  1  0
 13 24  1  0
 14 15  1  0
 15 16  2  0
 15 17  1  0
 17 18  1  0
 18 19  2  0
 18 23  1  0
 19 20  1  0
 20 21  2  0
 21 22  1  0
 22 23  2  0
M  END
