WPC1053_minimised.pdb
     RDKit          3D

 24 26  0  0  0  0  0  0  0  0999 V2000
    8.3970   -0.1020   19.8650 O   0  0  0  0  0  0  0  0  0  0  0  0
    7.5830   -0.2540   20.7580 C   0  0  0  0  0  0  0  0  0  0  0  0
    7.8920   -0.5460   22.0600 N   0  0  0  0  0  0  0  0  0  0  0  0
    9.1770   -0.3870   22.6110 C   0  0  0  0  0  0  0  0  0  0  0  0
   10.2930   -0.9410   21.9670 C   0  0  0  0  0  0  0  0  0  0  0  0
   11.5820   -0.5600   22.3540 C   0  0  0  0  0  0  0  0  0  0  0  0
   11.7480    0.3590   23.4010 C   0  0  0  0  0  0  0  0  0  0  0  0
   13.3460    1.0630   23.6690 S   0  0  0  0  0  0  0  0  0  0  0  0
   13.4790    2.0760   22.1420 C   0  0  0  0  0  0  0  0  0  0  0  0
   13.6030    3.5920   22.4140 C   0  0  0  0  0  0  0  0  0  0  0  0
   12.4820    4.1980   23.1500 N   0  0  0  0  0  0  0  0  0  0  0  0
   12.5810    5.2330   24.0520 C   0  0  0  0  0  0  0  0  0  0  0  0
   11.3190    5.4380   24.5360 C   0  0  0  0  0  0  0  0  0  0  0  0
   10.4300    4.5910   23.9330 N   0  0  0  0  0  0  0  0  0  0  0  0
   11.1370    3.8830   23.0680 C   0  0  0  0  0  0  0  0  0  0  0  0
   10.6400    0.8330   24.1180 C   0  0  0  0  0  0  0  0  0  0  0  0
    9.3480    0.4620   23.7160 C   0  0  0  0  0  0  0  0  0  0  0  0
    6.2390   -0.0900   20.5780 N   0  0  0  0  0  0  0  0  0  0  0  0
    5.6370    0.5330   19.4610 C   0  0  0  0  0  0  0  0  0  0  0  0
    4.6730    1.5240   19.6810 C   0  0  0  0  0  0  0  0  0  0  0  0
    4.1860    2.2160   18.5660 C   0  0  0  0  0  0  0  0  0  0  0  0
    4.6820    1.9120   17.2910 C   0  0  0  0  0  0  0  0  0  0  0  0
    5.5770    0.9230   17.0640 N   0  0  0  0  0  0  0  0  0  0  0  0
    6.0520    0.2640   18.1400 C   0  0  0  0  0  0  0  0  0  0  0  0
  1  2  2  0
  2  3  1  0
  2 18  1  0
  3  4  1  0
  4  5  2  0
  4 17  1  0
  5  6  1  0
  6  7  2  0
  7  8  1  0
  7 16  1  0
  8  9  1  0
  9 10  1  0
 10 11  1  0
 11 12  1  0
 11 15  1  0
 12 13  2  0
 13 14  1  0
 14 15  2  0
 16 17  2  0
 18 19  1  0
 19 20  2  0
 19 24  1  0
 20 21  1  0
 21 22  2  0
 22 23  1  0
 23 24  2  0
M  END
