WPC1686_minimised.pdb
     RDKit          3D

 21 22  0  0  0  0  0  0  0  0999 V2000
   12.2640    6.5740   25.1820 C   0  0  0  0  0  0  0  0  0  0  0  0
   11.6920    5.9630   24.3250 C   0  0  0  0  0  0  0  0  0  0  0  0
   10.9490    5.1930   23.3160 C   0  0  0  0  0  0  0  0  0  0  0  0
   10.0000    4.2600   23.9420 N   0  0  0  0  0  0  0  0  0  0  0  0
   10.6200    3.1120   24.6270 C   0  0  0  0  0  0  0  0  0  0  0  0
   10.7410    1.9070   23.7140 C   0  0  0  0  0  0  0  0  0  0  0  0
   11.9870    1.4460   23.2480 C   0  0  0  0  0  0  0  0  0  0  0  0
   12.0520    0.3280   22.3960 C   0  0  0  0  0  0  0  0  0  0  0  0
   10.8700   -0.3230   21.9980 C   0  0  0  0  0  0  0  0  0  0  0  0
    9.6300    0.1370   22.4680 C   0  0  0  0  0  0  0  0  0  0  0  0
    8.4130   -0.4060   22.0140 N   0  0  0  0  0  0  0  0  0  0  0  0
    7.9480   -0.2130   20.7460 C   0  0  0  0  0  0  0  0  0  0  0  0
    8.6540    0.0740   19.8010 O   0  0  0  0  0  0  0  0  0  0  0  0
    6.5850   -0.2730   20.6520 N   0  0  0  0  0  0  0  0  0  0  0  0
    5.8620    0.3120   19.5870 C   0  0  0  0  0  0  0  0  0  0  0  0
    4.9220    1.3100   19.8730 C   0  0  0  0  0  0  0  0  0  0  0  0
    4.3530    1.9990   18.7940 C   0  0  0  0  0  0  0  0  0  0  0  0
    4.7480    1.6840   17.4860 C   0  0  0  0  0  0  0  0  0  0  0  0
    5.6230    0.6940   17.2000 N   0  0  0  0  0  0  0  0  0  0  0  0
    6.1750    0.0360   18.2390 C   0  0  0  0  0  0  0  0  0  0  0  0
    9.5700    1.2370   23.3300 C   0  0  0  0  0  0  0  0  0  0  0  0
  1  2  3  0
  2  3  1  0
  3  4  1  0
  4  5  1  0
  5  6  1  0
  6 21  2  0
  6  7  1  0
  7  8  2  0
  8  9  1  0
  9 10  2  0
 10 11  1  0
 10 21  1  0
 11 12  1  0
 12 13  2  0
 12 14  1  0
 14 15  1  0
 15 16  2  0
 15 20  1  0
 16 17  1  0
 17 18  2  0
 18 19  1  0
 19 20  2  0
M  END
