WPC1971_minimised.pdb
     RDKit          3D

 24 25  0  0  0  0  0  0  0  0999 V2000
   14.3220    6.7920   21.8630 C   0  0  0  0  0  0  0  0  0  0  0  0
   13.8700    5.1070   21.9780 S   0  0  0  0  0  0  0  0  0  0  0  0
   14.6160    4.4560   23.0320 O   0  0  0  0  0  0  0  0  0  0  0  0
   13.7010    4.5920   20.6550 O   0  0  0  0  0  0  0  0  0  0  0  0
   12.3250    5.1610   22.4680 N   0  0  0  0  0  0  0  0  0  0  0  0
   11.9790    4.0350   23.3290 C   0  0  0  0  0  0  0  0  0  0  0  0
   10.4900    3.9780   23.6600 C   0  0  0  0  0  0  0  0  0  0  0  0
   10.2540    2.5950   24.8460 S   0  0  0  0  0  0  0  0  0  0  0  0
   10.3850    1.1600   23.8150 C   0  0  0  0  0  0  0  0  0  0  0  0
   11.6200    0.5650   23.5070 C   0  0  0  0  0  0  0  0  0  0  0  0
   11.6660   -0.5330   22.6270 C   0  0  0  0  0  0  0  0  0  0  0  0
   10.4780   -1.0320   22.0650 C   0  0  0  0  0  0  0  0  0  0  0  0
    9.2510   -0.4410   22.3970 C   0  0  0  0  0  0  0  0  0  0  0  0
    8.0510   -0.8280   21.7830 N   0  0  0  0  0  0  0  0  0  0  0  0
    7.7060   -0.3980   20.5380 C   0  0  0  0  0  0  0  0  0  0  0  0
    8.4990   -0.0080   19.7050 O   0  0  0  0  0  0  0  0  0  0  0  0
    6.3530   -0.3520   20.3580 N   0  0  0  0  0  0  0  0  0  0  0  0
    5.7270    0.3670   19.3170 C   0  0  0  0  0  0  0  0  0  0  0  0
    4.7790    1.3490   19.6300 C   0  0  0  0  0  0  0  0  0  0  0  0
    4.2980    2.1450   18.5820 C   0  0  0  0  0  0  0  0  0  0  0  0
    4.7930    1.9550   17.2840 C   0  0  0  0  0  0  0  0  0  0  0  0
    5.6840    0.9870   16.9720 N   0  0  0  0  0  0  0  0  0  0  0  0
    6.1440    0.2200   17.9790 C   0  0  0  0  0  0  0  0  0  0  0  0
    9.2060    0.6490   23.2690 C   0  0  0  0  0  0  0  0  0  0  0  0
  1  2  1  0
  2  3  2  0
  2  4  2  0
  2  5  1  0
  5  6  1  0
  6  7  1  0
  7  8  1  0
  8  9  1  0
  9 24  2  0
  9 10  1  0
 10 11  2  0
 11 12  1  0
 12 13  2  0
 13 14  1  0
 13 24  1  0
 14 15  1  0
 15 16  2  0
 15 17  1  0
 17 18  1  0
 18 19  2  0
 18 23  1  0
 19 20  1  0
 20 21  2  0
 21 22  1  0
 22 23  2  0
M  END
