WPC1947_minimised.pdb
     RDKit          3D

 21 22  0  0  1  0  0  0  0  0999 V2000
    8.7510    0.4240   20.1190 O   0  0  0  0  0  0  0  0  0  0  0  0
    8.3120   -0.4910   20.9540 C   0  0  0  0  0  0  0  0  0  0  0  0
    7.1270   -0.7700   20.6790 N   0  0  0  0  0  0  0  0  0  0  0  0
    6.2220   -0.1300   19.7780 C   0  0  2  0  0  0  0  0  0  0  0  0
    5.1180    0.6170   20.1850 C   0  0  0  0  0  0  0  0  0  0  0  0
    4.6670    1.5810   19.2380 C   0  0  0  0  0  0  0  0  0  0  0  0
    4.8430    1.2300   17.8330 C   0  0  0  0  0  0  0  0  0  0  0  0
    5.9380    0.4880   17.3970 N   0  0  0  0  0  0  0  0  0  0  0  0
    6.4330   -0.3290   18.3690 C   0  0  0  0  0  0  0  0  0  0  0  0
    9.1260   -1.1430   21.7800 N   0  0  0  0  0  0  0  0  0  0  0  0
   10.2800   -0.5990   22.2570 C   0  0  0  0  0  0  0  0  0  0  0  0
   11.4240   -1.1580   21.7240 C   0  0  0  0  0  0  0  0  0  0  0  0
   12.6920   -0.7510   22.1310 C   0  0  0  0  0  0  0  0  0  0  0  0
   12.8950    0.4520   22.8460 C   0  0  0  0  0  0  0  0  0  0  0  0
   11.7160    1.0120   23.4400 C   0  0  0  0  0  0  0  0  0  0  0  0
   11.7950    2.1620   24.4060 C   0  0  0  0  0  0  0  0  0  0  0  0
   11.2490    3.9730   23.9730 P   0  0  0  0  0  0  0  0  0  0  0  0
   12.3590    4.8190   23.9330 O   0  0  0  0  0  0  0  0  0  0  0  0
   11.4080    3.6450   22.2820 O   0  0  0  0  0  0  0  0  0  0  0  0
   10.4170    3.7360   22.6760 O   0  0  0  0  0  0  0  0  0  0  0  0
   10.4600    0.5340   23.0730 C   0  0  0  0  0  0  0  0  0  0  0  0
  1  2  2  0
  2 10  1  0
  2  3  1  0
  4  3  1  1
  4  5  1  0
  4  9  1  0
  5  6  1  0
  6  7  1  0
  7  8  1  0
  8  9  1  0
 10 11  1  0
 11 12  2  0
 11 21  1  0
 12 13  1  0
 13 14  2  0
 14 15  1  0
 15 16  1  0
 15 21  2  0
 16 17  1  0
 17 18  2  0
 17 19  1  0
 17 20  1  0
M  END
