WPC1393_minimised.pdb
     RDKit          3D

 21 22  0  0  1  0  0  0  0  0999 V2000
    9.3080    5.9400   22.8900 C   0  0  0  0  0  0  0  0  0  0  0  0
    9.5550    4.5570   23.3180 N   0  0  0  0  0  0  0  0  0  0  0  0
   10.8300    4.3210   24.0120 C   0  0  2  0  0  0  0  0  0  0  0  0
   12.0470    4.5650   23.0950 C   0  0  0  0  0  0  0  0  0  0  0  0
   10.8600    2.9000   24.6160 C   0  0  0  0  0  0  0  0  0  0  0  0
   10.8190    1.7410   23.6330 C   0  0  0  0  0  0  0  0  0  0  0  0
   12.0020    1.1450   23.1580 C   0  0  0  0  0  0  0  0  0  0  0  0
   11.9390    0.0460   22.2840 C   0  0  0  0  0  0  0  0  0  0  0  0
   10.6910   -0.4620   21.8880 C   0  0  0  0  0  0  0  0  0  0  0  0
    9.5130    0.1280   22.3700 C   0  0  0  0  0  0  0  0  0  0  0  0
    8.2440   -0.2960   21.9360 N   0  0  0  0  0  0  0  0  0  0  0  0
    7.7970   -0.1320   20.6580 C   0  0  0  0  0  0  0  0  0  0  0  0
    8.5200    0.0720   19.7040 O   0  0  0  0  0  0  0  0  0  0  0  0
    6.4330   -0.1280   20.5680 N   0  0  0  0  0  0  0  0  0  0  0  0
    5.7280    0.4510   19.4880 C   0  0  0  0  0  0  0  0  0  0  0  0
    4.7820    1.4480   19.7570 C   0  0  0  0  0  0  0  0  0  0  0  0
    4.2300    2.1310   18.6660 C   0  0  0  0  0  0  0  0  0  0  0  0
    4.6490    1.8140   17.3660 C   0  0  0  0  0  0  0  0  0  0  0  0
    5.5270    0.8210   17.0970 N   0  0  0  0  0  0  0  0  0  0  0  0
    6.0590    0.1650   18.1470 C   0  0  0  0  0  0  0  0  0  0  0  0
    9.5780    1.2220   23.2400 C   0  0  0  0  0  0  0  0  0  0  0  0
  1  2  1  0
  2  3  1  0
  3  4  1  6
  3  5  1  0
  5  6  1  0
  6 21  2  0
  6  7  1  0
  7  8  2  0
  8  9  1  0
  9 10  2  0
 10 11  1  0
 10 21  1  0
 11 12  1  0
 12 13  2  0
 12 14  1  0
 14 15  1  0
 15 16  2  0
 15 20  1  0
 16 17  1  0
 17 18  2  0
 18 19  1  0
 19 20  2  0
M  END
