WPC1891_minimised.pdb
     RDKit          3D

 23 24  0  0  0  0  0  0  0  0999 V2000
    9.3230    4.0580   23.1380 C   0  0  0  0  0  0  0  0  0  0  0  0
   10.3430    4.1330   24.2000 N   0  0  0  0  0  0  0  0  0  0  0  0
   10.6760    2.8650   24.8790 C   0  0  0  0  0  0  0  0  0  0  0  0
   10.9270    1.6910   23.9430 C   0  0  0  0  0  0  0  0  0  0  0  0
   12.2140    1.3550   23.4800 C   0  0  0  0  0  0  0  0  0  0  0  0
   12.3820    0.2940   22.5720 C   0  0  0  0  0  0  0  0  0  0  0  0
   11.2640   -0.4300   22.1170 C   0  0  0  0  0  0  0  0  0  0  0  0
    9.9860   -0.1060   22.5960 C   0  0  0  0  0  0  0  0  0  0  0  0
    8.8220   -0.6770   22.0450 N   0  0  0  0  0  0  0  0  0  0  0  0
    8.2310   -0.1600   20.9260 C   0  0  0  0  0  0  0  0  0  0  0  0
    8.7910    0.6160   20.1820 O   0  0  0  0  0  0  0  0  0  0  0  0
    6.9270   -0.5230   20.7360 N   0  0  0  0  0  0  0  0  0  0  0  0
    6.1230    0.0690   19.7310 C   0  0  0  0  0  0  0  0  0  0  0  0
    5.1820    1.0470   20.0800 C   0  0  0  0  0  0  0  0  0  0  0  0
    4.5480    1.7450   19.0420 C   0  0  0  0  0  0  0  0  0  0  0  0
    4.8720    1.4480   17.7090 C   0  0  0  0  0  0  0  0  0  0  0  0
    5.7580    0.4860   17.3660 N   0  0  0  0  0  0  0  0  0  0  0  0
    6.3850   -0.1660   18.3660 C   0  0  0  0  0  0  0  0  0  0  0  0
    9.8260    0.9320   23.5180 C   0  0  0  0  0  0  0  0  0  0  0  0
   11.5230    5.2860   24.0130 S   0  0  0  0  0  0  0  0  0  0  0  0
   12.3250    4.9180   22.4850 C   0  0  0  0  0  0  0  0  0  0  0  0
   10.8130    6.5430   23.9830 O   0  0  0  0  0  0  0  0  0  0  0  0
   12.5090    5.0730   25.0440 O   0  0  0  0  0  0  0  0  0  0  0  0
  1  2  1  0
  2 20  1  0
  2  3  1  0
  3  4  1  0
  4 19  2  0
  4  5  1  0
  5  6  2  0
  6  7  1  0
  7  8  2  0
  8  9  1  0
  8 19  1  0
  9 10  1  0
 10 11  2  0
 10 12  1  0
 12 13  1  0
 13 14  2  0
 13 18  1  0
 14 15  1  0
 15 16  2  0
 16 17  1  0
 17 18  2  0
 20 21  1  0
 20 22  2  0
 20 23  2  0
M  END
