WPC1045_minimised.pdb
     RDKit          3D

 22 23  0  0  0  0  0  0  0  0999 V2000
   12.3650    6.5880   25.0570 C   0  0  0  0  0  0  0  0  0  0  0  0
   12.7480    5.5370   24.1540 O   0  0  0  0  0  0  0  0  0  0  0  0
   11.9060    4.4780   23.9820 C   0  0  0  0  0  0  0  0  0  0  0  0
   10.8490    4.3450   24.5750 O   0  0  0  0  0  0  0  0  0  0  0  0
   12.4370    3.5300   22.9150 C   0  0  0  0  0  0  0  0  0  0  0  0
   13.0250    1.9050   23.5870 S   0  0  0  0  0  0  0  0  0  0  0  0
   11.6070    0.8850   23.3370 C   0  0  0  0  0  0  0  0  0  0  0  0
   11.6260   -0.0500   22.2940 C   0  0  0  0  0  0  0  0  0  0  0  0
   10.4390   -0.6920   21.9230 C   0  0  0  0  0  0  0  0  0  0  0  0
    9.2400   -0.3740   22.5800 C   0  0  0  0  0  0  0  0  0  0  0  0
    8.0030   -0.7270   22.0110 N   0  0  0  0  0  0  0  0  0  0  0  0
    7.6640   -0.3830   20.7310 C   0  0  0  0  0  0  0  0  0  0  0  0
    8.4590   -0.0950   19.8550 O   0  0  0  0  0  0  0  0  0  0  0  0
    6.3140   -0.3040   20.5490 N   0  0  0  0  0  0  0  0  0  0  0  0
    5.7020    0.3710   19.4680 C   0  0  0  0  0  0  0  0  0  0  0  0
    4.7670    1.3780   19.7350 C   0  0  0  0  0  0  0  0  0  0  0  0
    4.2850    2.1230   18.6500 C   0  0  0  0  0  0  0  0  0  0  0  0
    4.7660    1.8580   17.3600 C   0  0  0  0  0  0  0  0  0  0  0  0
    5.6430    0.8650   17.0910 N   0  0  0  0  0  0  0  0  0  0  0  0
    6.1060    0.1480   18.1350 C   0  0  0  0  0  0  0  0  0  0  0  0
    9.2470    0.4790   23.6940 C   0  0  0  0  0  0  0  0  0  0  0  0
   10.4390    1.1080   24.0800 C   0  0  0  0  0  0  0  0  0  0  0  0
  1  2  1  0
  2  3  1  0
  3  4  2  0
  3  5  1  0
  5  6  1  0
  6  7  1  0
  7 22  2  0
  7  8  1  0
  8  9  2  0
  9 10  1  0
 10 11  1  0
 10 21  2  0
 11 12  1  0
 12 13  2  0
 12 14  1  0
 14 15  1  0
 15 16  2  0
 15 20  1  0
 16 17  1  0
 17 18  2  0
 18 19  1  0
 19 20  2  0
 21 22  1  0
M  END
