WPC1139_minimised.pdb
     RDKit          3D

 24 26  0  0  1  0  0  0  0  0999 V2000
    9.9680    6.0450   23.0840 C   0  0  0  0  0  0  0  0  0  0  0  0
   10.6870    4.6880   23.1740 C   0  0  1  0  0  0  0  0  0  0  0  0
   12.2280    4.7800   23.2190 C   0  0  0  0  0  0  0  0  0  0  0  0
   12.8370    3.4190   23.4950 C   0  0  0  0  0  0  0  0  0  0  0  0
   12.1500    2.3750   23.9850 C   0  0  0  0  0  0  0  0  0  0  0  0
   12.7720    1.0140   24.2220 C   0  0  0  0  0  0  0  0  0  0  0  0
   12.5810    0.0860   23.0520 C   0  0  0  0  0  0  0  0  0  0  0  0
   13.6790   -0.2840   22.2660 C   0  0  0  0  0  0  0  0  0  0  0  0
   13.5010   -1.1350   21.1690 C   0  0  0  0  0  0  0  0  0  0  0  0
   12.2060   -1.5520   20.8260 C   0  0  0  0  0  0  0  0  0  0  0  0
   11.1040   -1.1660   21.6010 C   0  0  0  0  0  0  0  0  0  0  0  0
    9.7780   -1.4090   21.1890 N   0  0  0  0  0  0  0  0  0  0  0  0
    8.9310   -0.4190   20.7520 C   0  0  0  0  0  0  0  0  0  0  0  0
    9.2380    0.7560   20.6970 O   0  0  0  0  0  0  0  0  0  0  0  0
    7.7110   -0.8750   20.3340 N   0  0  0  0  0  0  0  0  0  0  0  0
    6.7840   -0.1180   19.5710 C   0  0  0  0  0  0  0  0  0  0  0  0
    6.1370    0.9970   20.1230 C   0  0  0  0  0  0  0  0  0  0  0  0
    5.2790    1.7370   19.2940 C   0  0  0  0  0  0  0  0  0  0  0  0
    5.1250    1.3680   17.9480 C   0  0  0  0  0  0  0  0  0  0  0  0
    5.7350    0.2840   17.4170 N   0  0  0  0  0  0  0  0  0  0  0  0
    6.5510   -0.4290   18.2180 C   0  0  0  0  0  0  0  0  0  0  0  0
   11.3050   -0.4000   22.7460 C   0  0  0  0  0  0  0  0  0  0  0  0
   10.6790    2.4570   24.3450 C   0  0  0  0  0  0  0  0  0  0  0  0
   10.1400    3.8890   24.3430 C   0  0  0  0  0  0  0  0  0  0  0  0
  2  1  1  1
  2  3  1  0
  2 24  1  0
  3  4  1  0
  4  5  2  0
  5 23  1  0
  5  6  1  0
  6  7  1  0
  7 22  1  0
  7  8  2  0
  8  9  1  0
  9 10  2  0
 10 11  1  0
 11 12  1  0
 11 22  2  0
 12 13  1  0
 13 14  2  0
 13 15  1  0
 15 16  1  0
 16 17  2  0
 16 21  1  0
 17 18  1  0
 18 19  2  0
 19 20  1  0
 20 21  2  0
 23 24  1  0
M  END
