WPC1683_minimised.pdb
     RDKit          3D

 24 25  0  0  1  0  0  0  0  0999 V2000
    8.4310   -0.2010   19.6800 O   0  0  0  0  0  0  0  0  0  0  0  0
    7.7470   -0.1850   20.6820 C   0  0  0  0  0  0  0  0  0  0  0  0
    6.4050    0.0700   20.6490 N   0  0  0  0  0  0  0  0  0  0  0  0
    5.7050    0.5960   19.5390 C   0  0  0  0  0  0  0  0  0  0  0  0
    4.7710    1.6140   19.7600 C   0  0  0  0  0  0  0  0  0  0  0  0
    4.1750    2.2070   18.6400 C   0  0  0  0  0  0  0  0  0  0  0  0
    4.5420    1.7820   17.3550 C   0  0  0  0  0  0  0  0  0  0  0  0
    5.4000    0.7610   17.1320 N   0  0  0  0  0  0  0  0  0  0  0  0
    5.9800    0.1960   18.2110 C   0  0  0  0  0  0  0  0  0  0  0  0
    8.2140   -0.3770   21.9490 N   0  0  0  0  0  0  0  0  0  0  0  0
    9.5730   -0.3610   22.3010 C   0  0  0  0  0  0  0  0  0  0  0  0
   10.3030   -1.5540   22.3870 C   0  0  0  0  0  0  0  0  0  0  0  0
   11.6640   -1.5100   22.7220 C   0  0  0  0  0  0  0  0  0  0  0  0
   12.2810   -0.2730   22.9670 C   0  0  0  0  0  0  0  0  0  0  0  0
   11.5460    0.9220   22.9150 C   0  0  0  0  0  0  0  0  0  0  0  0
   12.1940    2.2520   23.2840 C   0  0  0  0  0  0  0  0  0  0  0  0
   13.3550    2.8470   21.9870 S   0  0  2  0  0  0  0  0  0  0  0  0
   14.6210    1.8620   22.5550 O   0  0  0  0  0  0  0  0  0  0  0  0
   14.1220    4.3150   22.7880 C   0  0  0  0  0  0  0  0  0  0  0  0
   13.2300    5.5690   22.7490 C   0  0  2  0  0  0  0  0  0  0  0  0
   14.0530    6.7320   22.5650 O   0  0  0  0  0  0  0  0  0  0  0  0
   12.3050    5.7400   23.9910 C   0  0  0  0  0  0  0  0  0  0  0  0
   13.0070    6.1460   25.1740 O   0  0  0  0  0  0  0  0  0  0  0  0
   10.1860    0.8690   22.5710 C   0  0  0  0  0  0  0  0  0  0  0  0
  1  2  2  0
  2 10  1  0
  2  3  1  0
  3  4  1  0
  4  5  2  0
  4  9  1  0
  5  6  1  0
  6  7  2  0
  7  8  1  0
  8  9  2  0
 10 11  1  0
 11 12  2  0
 11 24  1  0
 12 13  1  0
 13 14  2  0
 14 15  1  0
 15 16  1  0
 15 24  2  0
 17 16  1  0
 17 19  1  0
 17 18  1  1
 19 20  1  0
 20 22  1  0
 20 21  1  1
 22 23  1  0
M  END
