WPC1490_minimised.pdb
     RDKit          3D

 24 25  0  0  0  0  0  0  0  0999 V2000
    8.8980    5.5790   22.1060 C   0  0  0  0  0  0  0  0  0  0  0  0
    9.2840    4.2070   22.6900 C   0  0  0  0  0  0  0  0  0  0  0  0
    8.0370    3.3030   22.8240 C   0  0  0  0  0  0  0  0  0  0  0  0
   10.0680    4.4140   24.0040 C   0  0  0  0  0  0  0  0  0  0  0  0
   10.5680    3.1420   24.4460 O   0  0  0  0  0  0  0  0  0  0  0  0
   11.7770    2.7190   23.9740 C   0  0  0  0  0  0  0  0  0  0  0  0
   12.6240    3.4550   23.5020 O   0  0  0  0  0  0  0  0  0  0  0  0
   12.0570    1.2860   24.4000 C   0  0  0  0  0  0  0  0  0  0  0  0
   11.5500    0.3000   23.3790 C   0  0  0  0  0  0  0  0  0  0  0  0
   12.4330   -0.3860   22.5300 C   0  0  0  0  0  0  0  0  0  0  0  0
   11.9290   -1.3200   21.6150 C   0  0  0  0  0  0  0  0  0  0  0  0
   10.5430   -1.5120   21.5090 C   0  0  0  0  0  0  0  0  0  0  0  0
    9.6620   -0.7600   22.2940 C   0  0  0  0  0  0  0  0  0  0  0  0
    8.2910   -0.7250   21.9750 N   0  0  0  0  0  0  0  0  0  0  0  0
    7.8350   -0.2270   20.7850 C   0  0  0  0  0  0  0  0  0  0  0  0
    8.5610    0.1030   19.8680 O   0  0  0  0  0  0  0  0  0  0  0  0
    6.4760   -0.1010   20.7110 N   0  0  0  0  0  0  0  0  0  0  0  0
    5.7980    0.5070   19.6270 C   0  0  0  0  0  0  0  0  0  0  0  0
    4.8580    1.5140   19.8770 C   0  0  0  0  0  0  0  0  0  0  0  0
    4.3250    2.1920   18.7730 C   0  0  0  0  0  0  0  0  0  0  0  0
    4.7540    1.8610   17.4780 C   0  0  0  0  0  0  0  0  0  0  0  0
    5.6230    0.8570   17.2260 N   0  0  0  0  0  0  0  0  0  0  0  0
    6.1380    0.2080   18.2890 C   0  0  0  0  0  0  0  0  0  0  0  0
   10.1670    0.1040   23.2670 C   0  0  0  0  0  0  0  0  0  0  0  0
  1  2  1  0
  2  3  1  0
  2  4  1  0
  4  5  1  0
  5  6  1  0
  6  7  2  0
  6  8  1  0
  8  9  1  0
  9 24  2  0
  9 10  1  0
 10 11  2  0
 11 12  1  0
 12 13  2  0
 13 14  1  0
 13 24  1  0
 14 15  1  0
 15 16  2  0
 15 17  1  0
 17 18  1  0
 18 19  2  0
 18 23  1  0
 19 20  1  0
 20 21  2  0
 21 22  1  0
 22 23  2  0
M  END
