WPC1824_minimised.pdb
     RDKit          3D

 23 24  0  0  1  0  0  0  0  0999 V2000
   13.7430    5.3930   22.1010 C   0  0  0  0  0  0  0  0  0  0  0  0
   12.2910    4.9050   22.3150 C   0  0  0  0  0  0  0  0  0  0  0  0
   11.8830    4.7130   23.7970 C   0  0  1  0  0  0  0  0  0  0  0  0
   11.5970    6.0350   24.5440 C   0  0  0  0  0  0  0  0  0  0  0  0
   12.8410    6.7520   24.8310 N   0  0  0  0  0  0  0  0  0  0  0  0
   12.7450    7.8300   25.8190 C   0  0  0  0  0  0  0  0  0  0  0  0
   10.6610    3.7730   23.9460 C   0  0  0  0  0  0  0  0  0  0  0  0
   10.8260    2.3360   23.4510 C   0  0  0  0  0  0  0  0  0  0  0  0
   12.0690    1.6760   23.3420 C   0  0  0  0  0  0  0  0  0  0  0  0
   12.1360    0.3640   22.8430 C   0  0  0  0  0  0  0  0  0  0  0  0
   10.9610   -0.3130   22.4720 C   0  0  0  0  0  0  0  0  0  0  0  0
    9.7240    0.3320   22.6040 C   0  0  0  0  0  0  0  0  0  0  0  0
    8.5280   -0.2660   22.1630 N   0  0  0  0  0  0  0  0  0  0  0  0
    8.0350   -0.0610   20.9070 C   0  0  0  0  0  0  0  0  0  0  0  0
    8.7120    0.3230   19.9760 O   0  0  0  0  0  0  0  0  0  0  0  0
    6.6830   -0.2350   20.7990 N   0  0  0  0  0  0  0  0  0  0  0  0
    5.9370    0.2940   19.7190 C   0  0  0  0  0  0  0  0  0  0  0  0
    4.9880    1.2920   19.9720 C   0  0  0  0  0  0  0  0  0  0  0  0
    4.4090    1.9360   18.8700 C   0  0  0  0  0  0  0  0  0  0  0  0
    4.8000    1.5730   17.5720 C   0  0  0  0  0  0  0  0  0  0  0  0
    5.6830    0.5810   17.3190 N   0  0  0  0  0  0  0  0  0  0  0  0
    6.2520   -0.0260   18.3810 C   0  0  0  0  0  0  0  0  0  0  0  0
    9.6620    1.6440   23.0860 C   0  0  0  0  0  0  0  0  0  0  0  0
  1  2  1  0
  3  2  1  6
  3  4  1  0
  3  7  1  0
  4  5  1  0
  5  6  1  0
  7  8  1  0
  8 23  2  0
  8  9  1  0
  9 10  2  0
 10 11  1  0
 11 12  2  0
 12 13  1  0
 12 23  1  0
 13 14  1  0
 14 15  2  0
 14 16  1  0
 16 17  1  0
 17 18  2  0
 17 22  1  0
 18 19  1  0
 19 20  2  0
 20 21  1  0
 21 22  2  0
M  END
