WPC1841_minimised.pdb
     RDKit          3D

 21 23  0  0  0  0  0  0  0  0999 V2000
    8.6730    0.3950   20.0360 O   0  0  0  0  0  0  0  0  0  0  0  0
    7.9640    0.0330   20.9520 C   0  0  0  0  0  0  0  0  0  0  0  0
    6.6110   -0.1090   20.8170 N   0  0  0  0  0  0  0  0  0  0  0  0
    5.8880    0.4000   19.7120 C   0  0  0  0  0  0  0  0  0  0  0  0
    4.9070    1.3730   19.9360 C   0  0  0  0  0  0  0  0  0  0  0  0
    4.3430    1.9980   18.8170 C   0  0  0  0  0  0  0  0  0  0  0  0
    4.7760    1.6380   17.5320 C   0  0  0  0  0  0  0  0  0  0  0  0
    5.6870    0.6650   17.3040 N   0  0  0  0  0  0  0  0  0  0  0  0
    6.2430    0.0780   18.3840 C   0  0  0  0  0  0  0  0  0  0  0  0
    8.4250   -0.2060   22.2150 N   0  0  0  0  0  0  0  0  0  0  0  0
    9.7020    0.1910   22.6540 C   0  0  0  0  0  0  0  0  0  0  0  0
   10.8430   -0.5470   22.3070 C   0  0  0  0  0  0  0  0  0  0  0  0
   12.1170   -0.0700   22.6580 C   0  0  0  0  0  0  0  0  0  0  0  0
   12.2430    1.1390   23.3640 C   0  0  0  0  0  0  0  0  0  0  0  0
   11.0980    1.8830   23.6930 C   0  0  0  0  0  0  0  0  0  0  0  0
   11.2280    3.4920   24.4370 S   0  0  0  0  0  0  0  0  0  0  0  0
   11.4760    4.5360   22.9490 C   0  0  0  0  0  0  0  0  0  0  0  0
   12.8120    5.2500   23.1150 C   0  0  0  0  0  0  0  0  0  0  0  0
   14.1030    4.4950   22.9310 C   0  0  0  0  0  0  0  0  0  0  0  0
   13.6580    5.4830   21.8870 C   0  0  0  0  0  0  0  0  0  0  0  0
    9.8310    1.4040   23.3420 C   0  0  0  0  0  0  0  0  0  0  0  0
  1  2  2  0
  2  3  1  0
  2 10  1  0
  3  4  1  0
  4  5  2  0
  4  9  1  0
  5  6  1  0
  6  7  2  0
  7  8  1  0
  8  9  2  0
 10 11  1  0
 11 21  1  0
 11 12  2  0
 12 13  1  0
 13 14  2  0
 14 15  1  0
 15 16  1  0
 15 21  2  0
 16 17  1  0
 17 18  1  0
 18 19  1  0
 18 20  1  0
 19 20  1  0
M  END
