WPC1883_minimised.pdb
     RDKit          3D

 23 25  0  0  0  0  0  0  0  0999 V2000
    8.5610   -0.0460   19.5250 O   0  0  0  0  0  0  0  0  0  0  0  0
    7.8950   -0.3890   20.4820 C   0  0  0  0  0  0  0  0  0  0  0  0
    6.5310   -0.3110   20.4880 N   0  0  0  0  0  0  0  0  0  0  0  0
    5.7840    0.3400   19.4790 C   0  0  0  0  0  0  0  0  0  0  0  0
    4.8860    1.3560   19.8270 C   0  0  0  0  0  0  0  0  0  0  0  0
    4.2880    2.0800   18.7860 C   0  0  0  0  0  0  0  0  0  0  0  0
    4.6200    1.7850   17.4550 C   0  0  0  0  0  0  0  0  0  0  0  0
    5.4580    0.7810   17.1130 N   0  0  0  0  0  0  0  0  0  0  0  0
    6.0310    0.0850   18.1140 C   0  0  0  0  0  0  0  0  0  0  0  0
    8.4240   -0.8300   21.6610 N   0  0  0  0  0  0  0  0  0  0  0  0
    9.7620   -0.6200   22.0440 C   0  0  0  0  0  0  0  0  0  0  0  0
   10.5740   -1.6800   22.4690 C   0  0  0  0  0  0  0  0  0  0  0  0
   11.8970   -1.4210   22.8630 C   0  0  0  0  0  0  0  0  0  0  0  0
   12.3880   -0.1020   22.8720 C   0  0  0  0  0  0  0  0  0  0  0  0
   11.5620    0.9670   22.4810 C   0  0  0  0  0  0  0  0  0  0  0  0
   12.0780    2.4040   22.5040 C   0  0  0  0  0  0  0  0  0  0  0  0
   11.1340    3.4650   23.0500 C   0  0  0  0  0  0  0  0  0  0  0  0
   11.5530    4.9110   22.9510 C   0  0  0  0  0  0  0  0  0  0  0  0
   10.2540    5.5540   23.3690 C   0  0  0  0  0  0  0  0  0  0  0  0
   10.0080    6.7370   23.4810 O   0  0  0  0  0  0  0  0  0  0  0  0
    9.3870    4.5430   23.6610 N   0  0  0  0  0  0  0  0  0  0  0  0
    9.9360    3.3050   23.4920 N   0  0  0  0  0  0  0  0  0  0  0  0
   10.2640    0.6870   22.0280 C   0  0  0  0  0  0  0  0  0  0  0  0
  1  2  2  0
  2  3  1  0
  2 10  1  0
  3  4  1  0
  4  5  2  0
  4  9  1  0
  5  6  1  0
  6  7  2  0
  7  8  1  0
  8  9  2  0
 10 11  1  0
 11 23  1  0
 11 12  2  0
 12 13  1  0
 13 14  2  0
 14 15  1  0
 15 16  1  0
 15 23  2  0
 16 17  1  0
 17 18  1  0
 17 22  2  0
 18 19  1  0
 19 20  2  0
 19 21  1  0
 21 22  1  0
M  END
