WPC1513_minimised.pdb
     RDKit          3D

 23 25  0  0  0  0  0  0  0  0999 V2000
    8.5950    0.2410   19.7730 O   0  0  0  0  0  0  0  0  0  0  0  0
    7.9080   -0.1610   20.6900 C   0  0  0  0  0  0  0  0  0  0  0  0
    6.5500   -0.2690   20.5910 N   0  0  0  0  0  0  0  0  0  0  0  0
    5.8130    0.3220   19.5390 C   0  0  0  0  0  0  0  0  0  0  0  0
    4.8700    1.3130   19.8360 C   0  0  0  0  0  0  0  0  0  0  0  0
    4.2950    2.0060   18.7630 C   0  0  0  0  0  0  0  0  0  0  0  0
    4.6870    1.7000   17.4520 C   0  0  0  0  0  0  0  0  0  0  0  0
    5.5700    0.7200   17.1570 N   0  0  0  0  0  0  0  0  0  0  0  0
    6.1290    0.0590   18.1900 C   0  0  0  0  0  0  0  0  0  0  0  0
    8.3920   -0.4580   21.9300 N   0  0  0  0  0  0  0  0  0  0  0  0
    9.6220    0.0290   22.4060 C   0  0  0  0  0  0  0  0  0  0  0  0
   10.8450   -0.4960   21.9620 C   0  0  0  0  0  0  0  0  0  0  0  0
   12.0500    0.0870   22.3890 C   0  0  0  0  0  0  0  0  0  0  0  0
   12.0270    1.1970   23.2520 C   0  0  0  0  0  0  0  0  0  0  0  0
   10.7980    1.7210   23.6950 C   0  0  0  0  0  0  0  0  0  0  0  0
   10.7380    2.8990   24.6490 C   0  0  0  0  0  0  0  0  0  0  0  0
   10.6520    4.2740   23.9530 C   0  0  0  0  0  0  0  0  0  0  0  0
   11.9460    4.6270   23.2820 C   0  0  0  0  0  0  0  0  0  0  0  0
   12.1060    4.7790   21.9340 N   0  0  0  0  0  0  0  0  0  0  0  0
   13.4450    5.0090   21.7060 C   0  0  0  0  0  0  0  0  0  0  0  0
   14.0380    4.9340   22.9350 C   0  0  0  0  0  0  0  0  0  0  0  0
   13.0940    4.7440   23.9130 N   0  0  0  0  0  0  0  0  0  0  0  0
    9.6010    1.1280   23.2710 C   0  0  0  0  0  0  0  0  0  0  0  0
  1  2  2  0
  2  3  1  0
  2 10  1  0
  3  4  1  0
  4  5  2  0
  4  9  1  0
  5  6  1  0
  6  7  2  0
  7  8  1  0
  8  9  2  0
 10 11  1  0
 11 23  1  0
 11 12  2  0
 12 13  1  0
 13 14  2  0
 14 15  1  0
 15 16  1  0
 15 23  2  0
 16 17  1  0
 17 18  1  0
 18 19  1  0
 18 22  2  0
 19 20  1  0
 20 21  2  0
 21 22  1  0
M  END
