WPC1089_minimised.pdb
     RDKit          3D

 23 25  0  0  0  0  0  0  0  0999 V2000
   13.5560    4.9270   22.4200 C   0  0  0  0  0  0  0  0  0  0  0  0
   12.3570    4.7190   23.3010 C   0  0  0  0  0  0  0  0  0  0  0  0
   11.6510    5.7620   23.8540 N   0  0  0  0  0  0  0  0  0  0  0  0
   10.6550    5.3240   24.5710 N   0  0  0  0  0  0  0  0  0  0  0  0
   10.4480    3.7130   24.6760 S   0  0  0  0  0  0  0  0  0  0  0  0
   11.8500    3.4980   23.6720 C   0  0  0  0  0  0  0  0  0  0  0  0
   12.6790    2.0010   23.2200 S   0  0  0  0  0  0  0  0  0  0  0  0
   11.2980    0.9630   23.6560 C   0  0  0  0  0  0  0  0  0  0  0  0
   11.3430    0.1920   24.8240 C   0  0  0  0  0  0  0  0  0  0  0  0
   10.2360   -0.5760   25.2120 C   0  0  0  0  0  0  0  0  0  0  0  0
    9.0970   -0.6170   24.3960 C   0  0  0  0  0  0  0  0  0  0  0  0
    9.0610    0.1150   23.2000 C   0  0  0  0  0  0  0  0  0  0  0  0
    7.8790    0.0680   22.4330 N   0  0  0  0  0  0  0  0  0  0  0  0
    7.7200    0.3090   21.0970 C   0  0  0  0  0  0  0  0  0  0  0  0
    8.6120    0.5280   20.3000 O   0  0  0  0  0  0  0  0  0  0  0  0
    6.3960    0.3010   20.7610 N   0  0  0  0  0  0  0  0  0  0  0  0
    5.8410    0.7980   19.5640 C   0  0  0  0  0  0  0  0  0  0  0  0
    4.8070    1.7370   19.6530 C   0  0  0  0  0  0  0  0  0  0  0  0
    4.3520    2.3150   18.4640 C   0  0  0  0  0  0  0  0  0  0  0  0
    4.9480    1.9560   17.2490 C   0  0  0  0  0  0  0  0  0  0  0  0
    5.9040    1.0050   17.1470 N   0  0  0  0  0  0  0  0  0  0  0  0
    6.3520    0.4550   18.2950 C   0  0  0  0  0  0  0  0  0  0  0  0
   10.1570    0.9210   22.8400 C   0  0  0  0  0  0  0  0  0  0  0  0
  1  2  1  0
  2  3  1  0
  2  6  2  0
  3  4  2  0
  4  5  1  0
  5  6  1  0
  6  7  1  0
  7  8  1  0
  8 23  1  0
  8  9  2  0
  9 10  1  0
 10 11  2  0
 11 12  1  0
 12 13  1  0
 12 23  2  0
 13 14  1  0
 14 15  2  0
 14 16  1  0
 16 17  1  0
 17 18  2  0
 17 22  1  0
 18 19  1  0
 19 20  2  0
 20 21  1  0
 21 22  2  0
M  END
