WPC1111_minimised.pdb
     RDKit          3D

 21 22  0  0  0  0  0  0  0  0999 V2000
   13.0390    5.1040   22.6790 C   0  0  0  0  0  0  0  0  0  0  0  0
   12.7870    3.7510   23.1860 N   0  0  0  0  0  0  0  0  0  0  0  0
   11.6490    3.3000   23.8090 C   0  0  0  0  0  0  0  0  0  0  0  0
   10.7190    4.1120   24.0960 N   0  0  0  0  0  0  0  0  0  0  0  0
   11.6970    1.8830   24.3200 C   0  0  0  0  0  0  0  0  0  0  0  0
   11.2780    0.8310   23.3180 C   0  0  0  0  0  0  0  0  0  0  0  0
   12.2350    0.0080   22.6970 C   0  0  0  0  0  0  0  0  0  0  0  0
   11.8210   -1.0330   21.8510 C   0  0  0  0  0  0  0  0  0  0  0  0
   10.4530   -1.2320   21.6130 C   0  0  0  0  0  0  0  0  0  0  0  0
    9.5050   -0.3790   22.1940 C   0  0  0  0  0  0  0  0  0  0  0  0
    8.1460   -0.4730   21.8450 N   0  0  0  0  0  0  0  0  0  0  0  0
    7.6840   -0.2220   20.5860 C   0  0  0  0  0  0  0  0  0  0  0  0
    8.4030   -0.1170   19.6120 O   0  0  0  0  0  0  0  0  0  0  0  0
    6.3310   -0.0380   20.5340 N   0  0  0  0  0  0  0  0  0  0  0  0
    5.6470    0.5610   19.4500 C   0  0  0  0  0  0  0  0  0  0  0  0
    4.7130    1.5700   19.7140 C   0  0  0  0  0  0  0  0  0  0  0  0
    4.1720    2.2560   18.6200 C   0  0  0  0  0  0  0  0  0  0  0  0
    4.5960    1.9370   17.3220 C   0  0  0  0  0  0  0  0  0  0  0  0
    5.4580    0.9290   17.0580 N   0  0  0  0  0  0  0  0  0  0  0  0
    5.9720    0.2640   18.1090 C   0  0  0  0  0  0  0  0  0  0  0  0
    9.9150    0.6430   23.0560 C   0  0  0  0  0  0  0  0  0  0  0  0
  1  2  1  0
  2  3  1  0
  3  4  2  0
  3  5  1  0
  5  6  1  0
  6 21  2  0
  6  7  1  0
  7  8  2  0
  8  9  1  0
  9 10  2  0
 10 11  1  0
 10 21  1  0
 11 12  1  0
 12 13  2  0
 12 14  1  0
 14 15  1  0
 15 16  2  0
 15 20  1  0
 16 17  1  0
 17 18  2  0
 18 19  1  0
 19 20  2  0
M  END
