WPC1785_minimised.pdb
     RDKit          3D

 23 24  0  0  0  0  0  0  0  0999 V2000
   12.7320    7.0240   25.7190 C   0  0  0  0  0  0  0  0  0  0  0  0
   12.6430    5.7700   25.0170 O   0  0  0  0  0  0  0  0  0  0  0  0
   11.6410    5.6010   24.1070 C   0  0  0  0  0  0  0  0  0  0  0  0
   10.7210    6.3870   23.9610 O   0  0  0  0  0  0  0  0  0  0  0  0
   11.6230    4.1650   23.5940 C   0  0  0  0  0  0  0  0  0  0  0  0
   10.7040    3.2800   24.4700 C   0  0  0  0  0  0  0  0  0  0  0  0
   11.2440    1.8510   24.7010 C   0  0  0  0  0  0  0  0  0  0  0  0
   10.9900    0.8720   23.5770 C   0  0  0  0  0  0  0  0  0  0  0  0
   12.0600    0.2360   22.9220 C   0  0  0  0  0  0  0  0  0  0  0  0
   11.8060   -0.7640   21.9690 C   0  0  0  0  0  0  0  0  0  0  0  0
   10.4800   -1.1000   21.6540 C   0  0  0  0  0  0  0  0  0  0  0  0
    9.4170   -0.4270   22.2690 C   0  0  0  0  0  0  0  0  0  0  0  0
    8.0910   -0.6230   21.8450 N   0  0  0  0  0  0  0  0  0  0  0  0
    7.6660   -0.3230   20.5830 C   0  0  0  0  0  0  0  0  0  0  0  0
    8.4080   -0.1440   19.6370 O   0  0  0  0  0  0  0  0  0  0  0  0
    6.3120   -0.1670   20.5020 N   0  0  0  0  0  0  0  0  0  0  0  0
    5.6490    0.4680   19.4260 C   0  0  0  0  0  0  0  0  0  0  0  0
    4.7200    1.4790   19.7020 C   0  0  0  0  0  0  0  0  0  0  0  0
    4.1930    2.1920   18.6170 C   0  0  0  0  0  0  0  0  0  0  0  0
    4.6260    1.8930   17.3170 C   0  0  0  0  0  0  0  0  0  0  0  0
    5.4900    0.8910   17.0410 N   0  0  0  0  0  0  0  0  0  0  0  0
    5.9910    0.2020   18.0840 C   0  0  0  0  0  0  0  0  0  0  0  0
    9.6700    0.5370   23.2470 C   0  0  0  0  0  0  0  0  0  0  0  0
  1  2  1  0
  2  3  1  0
  3  4  2  0
  3  5  1  0
  5  6  1  0
  6  7  1  0
  7  8  1  0
  8 23  2  0
  8  9  1  0
  9 10  2  0
 10 11  1  0
 11 12  2  0
 12 13  1  0
 12 23  1  0
 13 14  1  0
 14 15  2  0
 14 16  1  0
 16 17  1  0
 17 18  2  0
 17 22  1  0
 18 19  1  0
 19 20  2  0
 20 21  1  0
 21 22  2  0
M  END
