WPC1478_minimised.pdb
     RDKit          3D

 24 26  0  0  1  0  0  0  0  0999 V2000
   12.4790    6.5390   25.0600 C   0  0  0  0  0  0  0  0  0  0  0  0
   12.1400    5.5650   23.9140 C   0  0  0  0  0  0  0  0  0  0  0  0
   13.2790    5.4310   22.8720 C   0  0  0  0  0  0  0  0  0  0  0  0
   10.7370    5.8170   23.2990 C   0  0  0  0  0  0  0  0  0  0  0  0
    9.9300    4.5600   23.6060 C   0  0  0  0  0  0  0  0  0  0  0  0
   11.0140    3.5190   23.8600 C   0  0  2  0  0  0  0  0  0  0  0  0
   10.4830    2.1780   24.9760 S   0  0  0  0  0  0  0  0  0  0  0  0
   10.6240    0.8230   23.8570 C   0  0  0  0  0  0  0  0  0  0  0  0
   11.8690    0.4340   23.3380 C   0  0  0  0  0  0  0  0  0  0  0  0
   11.9280   -0.5540   22.3410 C   0  0  0  0  0  0  0  0  0  0  0  0
   10.7390   -1.1290   21.8600 C   0  0  0  0  0  0  0  0  0  0  0  0
    9.5000   -0.7180   22.3760 C   0  0  0  0  0  0  0  0  0  0  0  0
    8.2870   -1.1120   21.7900 N   0  0  0  0  0  0  0  0  0  0  0  0
    7.8470   -0.5750   20.6140 C   0  0  0  0  0  0  0  0  0  0  0  0
    8.5660   -0.0410   19.7940 O   0  0  0  0  0  0  0  0  0  0  0  0
    6.4890   -0.6150   20.4770 N   0  0  0  0  0  0  0  0  0  0  0  0
    5.7940    0.1120   19.4830 C   0  0  0  0  0  0  0  0  0  0  0  0
    4.8840    1.1090   19.8570 C   0  0  0  0  0  0  0  0  0  0  0  0
    4.3440    1.9110   18.8420 C   0  0  0  0  0  0  0  0  0  0  0  0
    4.7360    1.7010   17.5100 C   0  0  0  0  0  0  0  0  0  0  0  0
    5.5940    0.7230   17.1430 N   0  0  0  0  0  0  0  0  0  0  0  0
    6.1190   -0.0410   18.1210 C   0  0  0  0  0  0  0  0  0  0  0  0
    9.4460    0.2440   23.3860 C   0  0  0  0  0  0  0  0  0  0  0  0
   12.0200    4.2810   24.5230 O   0  0  0  0  0  0  0  0  0  0  0  0
  1  2  1  0
  2  3  1  0
  2 24  1  0
  2  4  1  0
  4  5  1  0
  5  6  1  0
  6  7  1  1
  6 24  1  0
  7  8  1  0
  8 23  1  0
  8  9  2  0
  9 10  1  0
 10 11  2  0
 11 12  1  0
 12 13  1  0
 12 23  2  0
 13 14  1  0
 14 15  2  0
 14 16  1  0
 16 17  1  0
 17 18  2  0
 17 22  1  0
 18 19  1  0
 19 20  2  0
 20 21  1  0
 21 22  2  0
M  END
