WPC1644_minimised.pdb
     RDKit          3D

 24 25  0  0  1  0  0  0  0  0999 V2000
    8.9680    4.7200   22.8530 C   0  0  0  0  0  0  0  0  0  0  0  0
   10.0310    5.7980   23.1470 C   0  0  0  0  0  0  0  0  0  0  0  0
   10.9930    5.4440   24.3080 C   0  0  2  0  0  0  0  0  0  0  0  0
   11.6990    6.6300   24.7060 O   0  0  0  0  0  0  0  0  0  0  0  0
   12.0380    4.3740   23.9420 C   0  0  0  0  0  0  0  0  0  0  0  0
   13.1900    4.6900   23.6940 O   0  0  0  0  0  0  0  0  0  0  0  0
   11.6360    3.0600   23.9980 N   0  0  0  0  0  0  0  0  0  0  0  0
   12.5010    1.9510   23.5780 C   0  0  0  0  0  0  0  0  0  0  0  0
   11.7990    0.7920   22.8970 C   0  0  0  0  0  0  0  0  0  0  0  0
   12.5990   -0.2230   22.3480 C   0  0  0  0  0  0  0  0  0  0  0  0
   12.0090   -1.3370   21.7380 C   0  0  0  0  0  0  0  0  0  0  0  0
   10.6130   -1.4310   21.6530 C   0  0  0  0  0  0  0  0  0  0  0  0
    9.8100   -0.4040   22.1670 C   0  0  0  0  0  0  0  0  0  0  0  0
    8.4220   -0.4110   21.9300 N   0  0  0  0  0  0  0  0  0  0  0  0
    7.8810   -0.1010   20.7140 C   0  0  0  0  0  0  0  0  0  0  0  0
    8.5500    0.0980   19.7210 O   0  0  0  0  0  0  0  0  0  0  0  0
    6.5180    0.0160   20.7090 N   0  0  0  0  0  0  0  0  0  0  0  0
    5.7790    0.5580   19.6280 C   0  0  0  0  0  0  0  0  0  0  0  0
    4.8370    1.5640   19.8790 C   0  0  0  0  0  0  0  0  0  0  0  0
    4.2540    2.1990   18.7740 C   0  0  0  0  0  0  0  0  0  0  0  0
    4.6440    1.8330   17.4770 C   0  0  0  0  0  0  0  0  0  0  0  0
    5.5060    0.8230   17.2260 N   0  0  0  0  0  0  0  0  0  0  0  0
    6.0640    0.2110   18.2880 C   0  0  0  0  0  0  0  0  0  0  0  0
   10.3970    0.6990   22.7990 C   0  0  0  0  0  0  0  0  0  0  0  0
  1  2  1  0
  2  3  1  0
  3  4  1  6
  3  5  1  0
  5  6  2  0
  5  7  1  0
  7  8  1  0
  8  9  1  0
  9 24  2  0
  9 10  1  0
 10 11  2  0
 11 12  1  0
 12 13  2  0
 13 14  1  0
 13 24  1  0
 14 15  1  0
 15 16  2  0
 15 17  1  0
 17 18  1  0
 18 19  2  0
 18 23  1  0
 19 20  1  0
 20 21  2  0
 21 22  1  0
 22 23  2  0
M  END
