WPC1759_minimised.pdb
     RDKit          3D

 22 23  0  0  0  0  0  0  0  0999 V2000
   13.8660    5.4030   21.8980 C   0  0  0  0  0  0  0  0  0  0  0  0
   12.5000    4.9970   22.2420 N   0  0  0  0  0  0  0  0  0  0  0  0
   12.0850    4.8650   23.5410 C   0  0  0  0  0  0  0  0  0  0  0  0
   12.7980    5.1760   24.4760 O   0  0  0  0  0  0  0  0  0  0  0  0
   10.6920    4.2880   23.7560 C   0  0  0  0  0  0  0  0  0  0  0  0
   10.7480    2.9460   24.5180 C   0  0  0  0  0  0  0  0  0  0  0  0
   10.8600    1.7290   23.6200 C   0  0  0  0  0  0  0  0  0  0  0  0
   12.1050    1.2150   23.2160 C   0  0  0  0  0  0  0  0  0  0  0  0
   12.1620    0.0750   22.3950 C   0  0  0  0  0  0  0  0  0  0  0  0
   10.9750   -0.5540   21.9780 C   0  0  0  0  0  0  0  0  0  0  0  0
    9.7360   -0.0420   22.3910 C   0  0  0  0  0  0  0  0  0  0  0  0
    8.5180   -0.5760   21.9270 N   0  0  0  0  0  0  0  0  0  0  0  0
    8.0030   -0.2660   20.7020 C   0  0  0  0  0  0  0  0  0  0  0  0
    8.6670    0.1700   19.7850 O   0  0  0  0  0  0  0  0  0  0  0  0
    6.6430   -0.3910   20.6180 N   0  0  0  0  0  0  0  0  0  0  0  0
    5.8890    0.2240   19.5890 C   0  0  0  0  0  0  0  0  0  0  0  0
    4.9570    1.2160   19.9200 C   0  0  0  0  0  0  0  0  0  0  0  0
    4.3810    1.9440   18.8700 C   0  0  0  0  0  0  0  0  0  0  0  0
    4.7590    1.6710   17.5470 C   0  0  0  0  0  0  0  0  0  0  0  0
    5.6270    0.6860   17.2200 N   0  0  0  0  0  0  0  0  0  0  0  0
    6.1880   -0.0070   18.2300 C   0  0  0  0  0  0  0  0  0  0  0  0
    9.6820    1.0920   23.2070 C   0  0  0  0  0  0  0  0  0  0  0  0
  1  2  1  0
  2  3  1  0
  3  4  2  0
  3  5  1  0
  5  6  1  0
  6  7  1  0
  7 22  2  0
  7  8  1  0
  8  9  2  0
  9 10  1  0
 10 11  2  0
 11 12  1  0
 11 22  1  0
 12 13  1  0
 13 14  2  0
 13 15  1  0
 15 16  1  0
 16 17  2  0
 16 21  1  0
 17 18  1  0
 18 19  2  0
 19 20  1  0
 20 21  2  0
M  END
