WPC1494_minimised.pdb
     RDKit          3D

 22 24  0  0  0  0  0  0  0  0999 V2000
    8.4080   -0.1450   19.6340 O   0  0  0  0  0  0  0  0  0  0  0  0
    7.7010   -0.2570   20.6160 C   0  0  0  0  0  0  0  0  0  0  0  0
    6.3470   -0.0780   20.5790 N   0  0  0  0  0  0  0  0  0  0  0  0
    5.6480    0.5150   19.5010 C   0  0  0  0  0  0  0  0  0  0  0  0
    4.7190    1.5260   19.7710 C   0  0  0  0  0  0  0  0  0  0  0  0
    4.1560    2.2020   18.6810 C   0  0  0  0  0  0  0  0  0  0  0  0
    4.5530    1.8650   17.3780 C   0  0  0  0  0  0  0  0  0  0  0  0
    5.4120    0.8570   17.1080 N   0  0  0  0  0  0  0  0  0  0  0  0
    5.9500    0.2060   18.1570 C   0  0  0  0  0  0  0  0  0  0  0  0
    8.1780   -0.5140   21.8690 N   0  0  0  0  0  0  0  0  0  0  0  0
    9.5400   -0.4100   22.2050 C   0  0  0  0  0  0  0  0  0  0  0  0
   10.4870   -1.2710   21.6330 C   0  0  0  0  0  0  0  0  0  0  0  0
   11.8570   -1.0590   21.8530 C   0  0  0  0  0  0  0  0  0  0  0  0
   12.2750    0.0060   22.6660 C   0  0  0  0  0  0  0  0  0  0  0  0
   11.3210    0.8410   23.2750 C   0  0  0  0  0  0  0  0  0  0  0  0
   11.7450    1.9400   24.2240 C   0  0  0  0  0  0  0  0  0  0  0  0
   11.5110    3.3040   23.7410 N   0  0  0  0  0  0  0  0  0  0  0  0
   12.4110    4.1720   23.1720 C   0  0  0  0  0  0  0  0  0  0  0  0
   11.8260    5.3330   22.9810 N   0  0  0  0  0  0  0  0  0  0  0  0
   10.5260    5.1130   23.3700 C   0  0  0  0  0  0  0  0  0  0  0  0
   10.3110    3.9190   23.8960 N   0  0  0  0  0  0  0  0  0  0  0  0
    9.9550    0.6330   23.0370 C   0  0  0  0  0  0  0  0  0  0  0  0
  1  2  2  0
  2  3  1  0
  2 10  1  0
  3  4  1  0
  4  5  2  0
  4  9  1  0
  5  6  1  0
  6  7  2  0
  7  8  1  0
  8  9  2  0
 10 11  1  0
 11 22  1  0
 11 12  2  0
 12 13  1  0
 13 14  2  0
 14 15  1  0
 15 16  1  0
 15 22  2  0
 16 17  1  0
 17 18  1  0
 17 21  1  0
 18 19  2  0
 19 20  1  0
 20 21  2  0
M  END
