WPC1599_minimised.pdb
     RDKit          3D

 24 25  0  0  0  0  0  0  0  0999 V2000
   12.5520    7.4140   25.7480 C   0  0  0  0  0  0  0  0  0  0  0  0
   11.7200    6.7220   24.7950 O   0  0  0  0  0  0  0  0  0  0  0  0
   12.2420    5.6380   24.1570 C   0  0  0  0  0  0  0  0  0  0  0  0
   13.3300    5.1610   24.4130 O   0  0  0  0  0  0  0  0  0  0  0  0
   11.2500    5.0010   23.1910 C   0  0  0  0  0  0  0  0  0  0  0  0
   11.3420    3.4580   23.1780 C   0  0  0  0  0  0  0  0  0  0  0  0
   10.8610    2.8310   24.5040 C   0  0  0  0  0  0  0  0  0  0  0  0
   11.3950    1.3990   24.7120 C   0  0  0  0  0  0  0  0  0  0  0  0
   11.0220    0.4470   23.5980 C   0  0  0  0  0  0  0  0  0  0  0  0
   12.0190   -0.1820   22.8330 C   0  0  0  0  0  0  0  0  0  0  0  0
   11.6640   -1.1100   21.8430 C   0  0  0  0  0  0  0  0  0  0  0  0
   10.3080   -1.3570   21.5840 C   0  0  0  0  0  0  0  0  0  0  0  0
    9.3160   -0.6640   22.2880 C   0  0  0  0  0  0  0  0  0  0  0  0
    7.9750   -0.7100   21.8700 N   0  0  0  0  0  0  0  0  0  0  0  0
    7.5790   -0.3160   20.6230 C   0  0  0  0  0  0  0  0  0  0  0  0
    8.3370   -0.1310   19.6910 O   0  0  0  0  0  0  0  0  0  0  0  0
    6.2350   -0.0920   20.5370 N   0  0  0  0  0  0  0  0  0  0  0  0
    5.5950    0.5480   19.4510 C   0  0  0  0  0  0  0  0  0  0  0  0
    4.6620    1.5590   19.7100 C   0  0  0  0  0  0  0  0  0  0  0  0
    4.1460    2.2620   18.6140 C   0  0  0  0  0  0  0  0  0  0  0  0
    4.5900    1.9540   17.3200 C   0  0  0  0  0  0  0  0  0  0  0  0
    5.4580    0.9500   17.0600 N   0  0  0  0  0  0  0  0  0  0  0  0
    5.9510    0.2720   18.1140 C   0  0  0  0  0  0  0  0  0  0  0  0
    9.6690    0.2060   23.3210 C   0  0  0  0  0  0  0  0  0  0  0  0
  1  2  1  0
  2  3  1  0
  3  4  2  0
  3  5  1  0
  5  6  1  0
  6  7  1  0
  7  8  1  0
  8  9  1  0
  9 24  2  0
  9 10  1  0
 10 11  2  0
 11 12  1  0
 12 13  2  0
 13 14  1  0
 13 24  1  0
 14 15  1  0
 15 16  2  0
 15 17  1  0
 17 18  1  0
 18 19  2  0
 18 23  1  0
 19 20  1  0
 20 21  2  0
 21 22  1  0
 22 23  2  0
M  END
