WPC1164_minimised.pdb
     RDKit          3D

 20 21  0  0  0  0  0  0  0  0999 V2000
   12.4170    5.0540   22.2830 N   0  0  0  0  0  0  0  0  0  0  0  0
   12.2660    4.2040   23.3300 N   0  0  0  0  0  0  0  0  0  0  0  0
   11.1520    3.5690   23.4350 C   0  0  0  0  0  0  0  0  0  0  0  0
   11.0010    2.3740   24.3330 C   0  0  0  0  0  0  0  0  0  0  0  0
   10.8530    1.1090   23.5170 C   0  0  0  0  0  0  0  0  0  0  0  0
   11.9860    0.4260   23.0380 C   0  0  0  0  0  0  0  0  0  0  0  0
   11.8330   -0.7070   22.2210 C   0  0  0  0  0  0  0  0  0  0  0  0
   10.5450   -1.1420   21.8670 C   0  0  0  0  0  0  0  0  0  0  0  0
    9.4210   -0.4450   22.3290 C   0  0  0  0  0  0  0  0  0  0  0  0
    8.1350   -0.7390   21.8450 N   0  0  0  0  0  0  0  0  0  0  0  0
    7.7230   -0.3540   20.6030 C   0  0  0  0  0  0  0  0  0  0  0  0
    8.4730   -0.0180   19.7080 O   0  0  0  0  0  0  0  0  0  0  0  0
    6.3630   -0.2940   20.4850 N   0  0  0  0  0  0  0  0  0  0  0  0
    5.7000    0.3770   19.4320 C   0  0  0  0  0  0  0  0  0  0  0  0
    4.7680    1.3780   19.7340 C   0  0  0  0  0  0  0  0  0  0  0  0
    4.2550    2.1310   18.6690 C   0  0  0  0  0  0  0  0  0  0  0  0
    4.7010    1.8780   17.3630 C   0  0  0  0  0  0  0  0  0  0  0  0
    5.5730    0.8900   17.0630 N   0  0  0  0  0  0  0  0  0  0  0  0
    6.0650    0.1660   18.0870 C   0  0  0  0  0  0  0  0  0  0  0  0
    9.5730    0.6680   23.1610 C   0  0  0  0  0  0  0  0  0  0  0  0
  1  2  1  0
  2  3  2  0
  3  4  1  0
  4  5  1  0
  5 20  2  0
  5  6  1  0
  6  7  2  0
  7  8  1  0
  8  9  2  0
  9 10  1  0
  9 20  1  0
 10 11  1  0
 11 12  2  0
 11 13  1  0
 13 14  1  0
 14 15  2  0
 14 19  1  0
 15 16  1  0
 16 17  2  0
 17 18  1  0
 18 19  2  0
M  END
