WPC1734_minimised.pdb
     RDKit          3D

 24 26  0  0  0  0  0  0  0  0999 V2000
    8.5780   -0.3110   19.9220 O   0  0  0  0  0  0  0  0  0  0  0  0
    7.7750   -0.7780   20.7040 C   0  0  0  0  0  0  0  0  0  0  0  0
    6.4240   -0.6920   20.5180 N   0  0  0  0  0  0  0  0  0  0  0  0
    5.8030    0.0630   19.4980 C   0  0  0  0  0  0  0  0  0  0  0  0
    4.8570    1.0380   19.8400 C   0  0  0  0  0  0  0  0  0  0  0  0
    4.3290    1.8230   18.8070 C   0  0  0  0  0  0  0  0  0  0  0  0
    4.7630    1.6170   17.4890 C   0  0  0  0  0  0  0  0  0  0  0  0
    5.6590    0.6640   17.1510 N   0  0  0  0  0  0  0  0  0  0  0  0
    6.1820   -0.0790   18.1470 C   0  0  0  0  0  0  0  0  0  0  0  0
    8.0910   -1.3610   21.8980 N   0  0  0  0  0  0  0  0  0  0  0  0
    9.2800   -1.0870   22.5920 C   0  0  0  0  0  0  0  0  0  0  0  0
   10.5410   -1.2940   22.0150 C   0  0  0  0  0  0  0  0  0  0  0  0
   11.6900   -0.7990   22.6480 C   0  0  0  0  0  0  0  0  0  0  0  0
   11.5670   -0.0770   23.8470 C   0  0  0  0  0  0  0  0  0  0  0  0
   10.2990    0.1480   24.4090 C   0  0  0  0  0  0  0  0  0  0  0  0
   10.1090    1.1440   25.5390 C   0  0  0  0  0  0  0  0  0  0  0  0
   10.5160    2.5900   25.1390 C   0  0  0  0  0  0  0  0  0  0  0  0
   10.2050    2.9500   23.7400 N   0  0  0  0  0  0  0  0  0  0  0  0
    8.8460    2.8570   23.2080 C   0  0  0  0  0  0  0  0  0  0  0  0
    9.1880    2.4740   21.8010 C   0  0  0  0  0  0  0  0  0  0  0  0
   10.4610    2.4990   21.5810 N   0  0  0  0  0  0  0  0  0  0  0  0
   11.1500    2.8950   22.7280 C   0  0  0  0  0  0  0  0  0  0  0  0
   12.8090    2.9920   22.9040 S   0  0  0  0  0  0  0  0  0  0  0  0
    9.1630   -0.4050   23.8040 C   0  0  0  0  0  0  0  0  0  0  0  0
  1  2  2  0
  2  3  1  0
  2 10  1  0
  3  4  1  0
  4  5  2  0
  4  9  1  0
  5  6  1  0
  6  7  2  0
  7  8  1  0
  8  9  2  0
 10 11  1  0
 11 24  1  0
 11 12  2  0
 12 13  1  0
 13 14  2  0
 14 15  1  0
 15 16  1  0
 15 24  2  0
 16 17  1  0
 17 18  1  0
 18 19  1  0
 18 22  1  0
 19 20  1  0
 20 21  2  0
 21 22  1  0
 22 23  2  0
M  END
