WPC1608_minimised.pdb
     RDKit          3D

 22 23  0  0  0  0  0  0  0  0999 V2000
   13.4330    5.3940   22.4690 N   0  0  0  0  0  0  0  0  0  0  0  0
   12.5370    5.1180   23.4480 C   0  0  0  0  0  0  0  0  0  0  0  0
   12.8090    5.3600   24.6040 O   0  0  0  0  0  0  0  0  0  0  0  0
   11.3650    4.5370   23.0170 N   0  0  0  0  0  0  0  0  0  0  0  0
   10.3650    4.1550   23.9510 O   0  0  0  0  0  0  0  0  0  0  0  0
   10.7140    2.9410   24.6440 C   0  0  0  0  0  0  0  0  0  0  0  0
   10.7590    1.7450   23.7060 C   0  0  0  0  0  0  0  0  0  0  0  0
   11.9810    1.2130   23.2530 C   0  0  0  0  0  0  0  0  0  0  0  0
   11.9900    0.1060   22.3860 C   0  0  0  0  0  0  0  0  0  0  0  0
   10.7770   -0.4710   21.9720 C   0  0  0  0  0  0  0  0  0  0  0  0
    9.5610    0.0590   22.4330 C   0  0  0  0  0  0  0  0  0  0  0  0
    8.3220   -0.4220   21.9700 N   0  0  0  0  0  0  0  0  0  0  0  0
    7.8770   -0.2070   20.6990 C   0  0  0  0  0  0  0  0  0  0  0  0
    8.6020    0.0740   19.7660 O   0  0  0  0  0  0  0  0  0  0  0  0
    6.5140   -0.2430   20.5940 N   0  0  0  0  0  0  0  0  0  0  0  0
    5.8070    0.3570   19.5270 C   0  0  0  0  0  0  0  0  0  0  0  0
    4.8570    1.3450   19.8150 C   0  0  0  0  0  0  0  0  0  0  0  0
    4.3050    2.0510   18.7390 C   0  0  0  0  0  0  0  0  0  0  0  0
    4.7280    1.7650   17.4330 C   0  0  0  0  0  0  0  0  0  0  0  0
    5.6120    0.7830   17.1440 N   0  0  0  0  0  0  0  0  0  0  0  0
    6.1460    0.1060   18.1810 C   0  0  0  0  0  0  0  0  0  0  0  0
    9.5550    1.1590   23.2970 C   0  0  0  0  0  0  0  0  0  0  0  0
  1  2  1  0
  2  3  2  0
  2  4  1  0
  4  5  1  0
  5  6  1  0
  6  7  1  0
  7 22  2  0
  7  8  1  0
  8  9  2  0
  9 10  1  0
 10 11  2  0
 11 12  1  0
 11 22  1  0
 12 13  1  0
 13 14  2  0
 13 15  1  0
 15 16  1  0
 16 17  2  0
 16 21  1  0
 17 18  1  0
 18 19  2  0
 19 20  1  0
 20 21  2  0
M  END
