WPC1378_minimised.pdb
     RDKit          3D

 23 24  0  0  0  0  0  0  0  0999 V2000
    8.6210    4.7050   22.6410 C   0  0  0  0  0  0  0  0  0  0  0  0
    9.8040    5.5670   23.0680 C   0  0  0  0  0  0  0  0  0  0  0  0
    9.6970    6.7530   23.2930 O   0  0  0  0  0  0  0  0  0  0  0  0
   11.0310    4.9940   23.2850 N   0  0  0  0  0  0  0  0  0  0  0  0
   11.3820    3.5750   23.1530 C   0  0  0  0  0  0  0  0  0  0  0  0
   11.0980    2.8420   24.4750 C   0  0  0  0  0  0  0  0  0  0  0  0
   11.6960    1.4210   24.5350 C   0  0  0  0  0  0  0  0  0  0  0  0
   11.2320    0.4980   23.4310 C   0  0  0  0  0  0  0  0  0  0  0  0
   12.1690   -0.2190   22.6690 C   0  0  0  0  0  0  0  0  0  0  0  0
   11.7340   -1.1580   21.7240 C   0  0  0  0  0  0  0  0  0  0  0  0
   10.3600   -1.3350   21.5070 C   0  0  0  0  0  0  0  0  0  0  0  0
    9.4280   -0.5590   22.2060 C   0  0  0  0  0  0  0  0  0  0  0  0
    8.0760   -0.5580   21.8230 N   0  0  0  0  0  0  0  0  0  0  0  0
    7.6660   -0.1790   20.5760 C   0  0  0  0  0  0  0  0  0  0  0  0
    8.4210   -0.0020   19.6400 O   0  0  0  0  0  0  0  0  0  0  0  0
    6.3200    0.0310   20.4860 N   0  0  0  0  0  0  0  0  0  0  0  0
    5.6710    0.6430   19.3890 C   0  0  0  0  0  0  0  0  0  0  0  0
    4.7150    1.6360   19.6300 C   0  0  0  0  0  0  0  0  0  0  0  0
    4.1910    2.3160   18.5240 C   0  0  0  0  0  0  0  0  0  0  0  0
    4.6580    2.0120   17.2370 C   0  0  0  0  0  0  0  0  0  0  0  0
    5.5440    1.0200   16.9930 N   0  0  0  0  0  0  0  0  0  0  0  0
    6.0370    0.3580   18.0560 C   0  0  0  0  0  0  0  0  0  0  0  0
    9.8590    0.3270   23.1940 C   0  0  0  0  0  0  0  0  0  0  0  0
  1  2  1  0
  2  3  2  0
  2  4  1  0
  4  5  1  0
  5  6  1  0
  6  7  1  0
  7  8  1  0
  8 23  2  0
  8  9  1  0
  9 10  2  0
 10 11  1  0
 11 12  2  0
 12 13  1  0
 12 23  1  0
 13 14  1  0
 14 15  2  0
 14 16  1  0
 16 17  1  0
 17 18  2  0
 17 22  1  0
 18 19  1  0
 19 20  2  0
 20 21  1  0
 21 22  2  0
M  END
