WPC1746_minimised.pdb
     RDKit          3D

 24 26  0  0  0  0  0  0  0  0999 V2000
    8.5040    0.2830   19.8240 O   0  0  0  0  0  0  0  0  0  0  0  0
    7.7880   -0.0650   20.7420 C   0  0  0  0  0  0  0  0  0  0  0  0
    6.4280   -0.1200   20.6330 N   0  0  0  0  0  0  0  0  0  0  0  0
    5.7110    0.4230   19.5430 C   0  0  0  0  0  0  0  0  0  0  0  0
    4.7340    1.3950   19.7890 C   0  0  0  0  0  0  0  0  0  0  0  0
    4.1580    2.0280   18.6830 C   0  0  0  0  0  0  0  0  0  0  0  0
    4.5830    1.6870   17.3910 C   0  0  0  0  0  0  0  0  0  0  0  0
    5.4940    0.7200   17.1430 N   0  0  0  0  0  0  0  0  0  0  0  0
    6.0560    0.1170   18.2090 C   0  0  0  0  0  0  0  0  0  0  0  0
    8.2440   -0.3880   21.9880 N   0  0  0  0  0  0  0  0  0  0  0  0
    9.5670   -0.1710   22.4160 C   0  0  0  0  0  0  0  0  0  0  0  0
   10.6450   -0.7230   21.7100 C   0  0  0  0  0  0  0  0  0  0  0  0
   11.9630   -0.3920   22.0560 C   0  0  0  0  0  0  0  0  0  0  0  0
   12.1980    0.4820   23.1270 C   0  0  0  0  0  0  0  0  0  0  0  0
   11.1170    0.9980   23.8660 C   0  0  0  0  0  0  0  0  0  0  0  0
   11.3730    1.8550   25.0820 C   0  0  0  0  0  0  0  0  0  0  0  0
   10.8400    3.6130   24.9250 S   0  0  0  0  0  0  0  0  0  0  0  0
   11.8290    4.1870   23.5710 C   0  0  0  0  0  0  0  0  0  0  0  0
   13.0160    4.9130   23.7450 C   0  0  0  0  0  0  0  0  0  0  0  0
   13.7480    5.2920   22.6070 C   0  0  0  0  0  0  0  0  0  0  0  0
   13.3350    5.0530   21.3580 N   0  0  0  0  0  0  0  0  0  0  0  0
   12.1830    4.3830   21.2060 C   0  0  0  0  0  0  0  0  0  0  0  0
   11.4150    3.9130   22.2710 C   0  0  0  0  0  0  0  0  0  0  0  0
    9.8020    0.6750   23.5060 C   0  0  0  0  0  0  0  0  0  0  0  0
  1  2  2  0
  2  3  1  0
  2 10  1  0
  3  4  1  0
  4  5  2  0
  4  9  1  0
  5  6  1  0
  6  7  2  0
  7  8  1  0
  8  9  2  0
 10 11  1  0
 11 24  1  0
 11 12  2  0
 12 13  1  0
 13 14  2  0
 14 15  1  0
 15 16  1  0
 15 24  2  0
 16 17  1  0
 17 18  1  0
 18 19  2  0
 18 23  1  0
 19 20  1  0
 20 21  2  0
 21 22  1  0
 22 23  2  0
M  END
