WPC1754_minimised.pdb
     RDKit          3D

 24 26  0  0  0  0  0  0  0  0999 V2000
   10.7770    5.5810   24.9180 O   0  0  0  0  0  0  0  0  0  0  0  0
   11.1810    5.3240   23.8010 C   0  0  0  0  0  0  0  0  0  0  0  0
   12.6800    5.2690   23.5240 C   0  0  0  0  0  0  0  0  0  0  0  0
   13.2220    4.1910   22.1200 S   0  0  0  0  0  0  0  0  0  0  0  0
   12.9080    2.4870   22.5720 C   0  0  0  0  0  0  0  0  0  0  0  0
   13.9690    1.5820   22.7260 C   0  0  0  0  0  0  0  0  0  0  0  0
   13.7050    0.2110   22.8990 C   0  0  0  0  0  0  0  0  0  0  0  0
   12.3800   -0.2660   22.8960 C   0  0  0  0  0  0  0  0  0  0  0  0
   11.3170    0.6330   22.7460 C   0  0  0  0  0  0  0  0  0  0  0  0
    9.9820    0.1730   22.5970 N   0  0  0  0  0  0  0  0  0  0  0  0
    9.2350    0.4260   21.4740 C   0  0  0  0  0  0  0  0  0  0  0  0
    9.7040    0.9950   20.5160 O   0  0  0  0  0  0  0  0  0  0  0  0
    7.9160    0.0470   21.4680 N   0  0  0  0  0  0  0  0  0  0  0  0
    7.0360    0.3800   20.3970 C   0  0  0  0  0  0  0  0  0  0  0  0
    5.9970    1.2970   20.6090 C   0  0  0  0  0  0  0  0  0  0  0  0
    5.2750    1.7450   19.4920 C   0  0  0  0  0  0  0  0  0  0  0  0
    5.5980    1.2590   18.2150 C   0  0  0  0  0  0  0  0  0  0  0  0
    6.5640    0.3390   18.0030 N   0  0  0  0  0  0  0  0  0  0  0  0
    7.2860   -0.0590   19.0760 C   0  0  0  0  0  0  0  0  0  0  0  0
   11.5960    2.0000   22.5960 C   0  0  0  0  0  0  0  0  0  0  0  0
   10.2980    5.0910   22.7740 N   0  0  0  0  0  0  0  0  0  0  0  0
    8.9030    4.8430   23.0080 C   0  0  0  0  0  0  0  0  0  0  0  0
    8.3760    3.6980   22.1820 C   0  0  0  0  0  0  0  0  0  0  0  0
    7.9880    5.1080   21.8440 C   0  0  0  0  0  0  0  0  0  0  0  0
  1  2  2  0
  2  3  1  0
  2 21  1  0
  3  4  1  0
  4  5  1  0
  5  6  2  0
  5 20  1  0
  6  7  1  0
  7  8  2  0
  8  9  1  0
  9 10  1  0
  9 20  2  0
 10 11  1  0
 11 13  1  0
 11 12  2  0
 13 14  1  0
 14 15  2  0
 14 19  1  0
 15 16  1  0
 16 17  2  0
 17 18  1  0
 18 19  2  0
 21 22  1  0
 22 23  1  0
 22 24  1  0
 23 24  1  0
M  END
