WPC1692_minimised.pdb
     RDKit          3D

 24 25  0  0  1  0  0  0  0  0999 V2000
    7.6810    4.3020   22.1680 C   0  0  0  0  0  0  0  0  0  0  0  0
    8.9340    4.8040   22.9000 C   0  0  0  0  0  0  0  0  0  0  0  0
    9.7640    3.6450   23.0560 O   0  0  0  0  0  0  0  0  0  0  0  0
   10.8920    3.7310   23.9530 C   0  0  1  0  0  0  0  0  0  0  0  0
   11.2940    2.2970   24.3950 C   0  0  0  0  0  0  0  0  0  0  0  0
   11.0880    1.1640   23.4050 C   0  0  0  0  0  0  0  0  0  0  0  0
   12.1810    0.4770   22.8430 C   0  0  0  0  0  0  0  0  0  0  0  0
   11.9620   -0.6230   21.9960 C   0  0  0  0  0  0  0  0  0  0  0  0
   10.6500   -1.0260   21.6990 C   0  0  0  0  0  0  0  0  0  0  0  0
    9.5640   -0.3280   22.2420 C   0  0  0  0  0  0  0  0  0  0  0  0
    8.2450   -0.5900   21.8310 N   0  0  0  0  0  0  0  0  0  0  0  0
    7.7830   -0.2310   20.5970 C   0  0  0  0  0  0  0  0  0  0  0  0
    8.5000    0.0460   19.6560 O   0  0  0  0  0  0  0  0  0  0  0  0
    6.4220   -0.1320   20.5340 N   0  0  0  0  0  0  0  0  0  0  0  0
    5.7320    0.4980   19.4720 C   0  0  0  0  0  0  0  0  0  0  0  0
    4.7990    1.5040   19.7590 C   0  0  0  0  0  0  0  0  0  0  0  0
    4.2510    2.2090   18.6790 C   0  0  0  0  0  0  0  0  0  0  0  0
    4.6640    1.9090   17.3720 C   0  0  0  0  0  0  0  0  0  0  0  0
    5.5340    0.9140   17.0870 N   0  0  0  0  0  0  0  0  0  0  0  0
    6.0590    0.2340   18.1250 C   0  0  0  0  0  0  0  0  0  0  0  0
    9.7840    0.7400   23.1130 C   0  0  0  0  0  0  0  0  0  0  0  0
   12.0950    4.5220   23.4040 C   0  0  0  0  0  0  0  0  0  0  0  0
   12.9700    4.9450   24.1360 O   0  0  0  0  0  0  0  0  0  0  0  0
   12.0310    4.9100   22.1190 O   0  0  0  0  0  0  0  0  0  0  0  0
  1  2  1  0
  2  3  1  0
  3  4  1  0
  4 22  1  0
  4  5  1  6
  5  6  1  0
  6 21  2  0
  6  7  1  0
  7  8  2  0
  8  9  1  0
  9 10  2  0
 10 11  1  0
 10 21  1  0
 11 12  1  0
 12 13  2  0
 12 14  1  0
 14 15  1  0
 15 16  2  0
 15 20  1  0
 16 17  1  0
 17 18  2  0
 18 19  1  0
 19 20  2  0
 22 23  2  0
 22 24  1  0
M  END
