WPC1544_minimised.pdb
     RDKit          3D

 17 18  0  0  0  0  0  0  0  0999 V2000
    8.7750    0.2100   19.9150 O   0  0  0  0  0  0  0  0  0  0  0  0
    8.1080    0.0360   20.9120 C   0  0  0  0  0  0  0  0  0  0  0  0
    6.7410   -0.0240   20.8730 N   0  0  0  0  0  0  0  0  0  0  0  0
    5.9800    0.4390   19.7700 C   0  0  0  0  0  0  0  0  0  0  0  0
    5.0060    1.4210   19.9900 C   0  0  0  0  0  0  0  0  0  0  0  0
    4.4010    2.0050   18.8710 C   0  0  0  0  0  0  0  0  0  0  0  0
    4.7960    1.6080   17.5850 C   0  0  0  0  0  0  0  0  0  0  0  0
    5.6920    0.6220   17.3610 N   0  0  0  0  0  0  0  0  0  0  0  0
    6.2790    0.0650   18.4400 C   0  0  0  0  0  0  0  0  0  0  0  0
    8.6470   -0.0350   22.1650 N   0  0  0  0  0  0  0  0  0  0  0  0
    9.9650    0.3800   22.4460 C   0  0  0  0  0  0  0  0  0  0  0  0
   11.0430   -0.5100   22.3320 C   0  0  0  0  0  0  0  0  0  0  0  0
   12.3540   -0.0450   22.5330 C   0  0  0  0  0  0  0  0  0  0  0  0
   12.5790    1.3060   22.8500 C   0  0  0  0  0  0  0  0  0  0  0  0
   11.5020    2.2050   22.9310 C   0  0  0  0  0  0  0  0  0  0  0  0
   11.7730    3.9460   23.1740 S   0  0  0  0  0  0  0  0  0  0  0  0
   10.1980    1.7320   22.7350 C   0  0  0  0  0  0  0  0  0  0  0  0
  1  2  2  0
  2 10  1  0
  2  3  1  0
  3  4  1  0
  4  5  2  0
  4  9  1  0
  5  6  1  0
  6  7  2  0
  7  8  1  0
  8  9  2  0
 10 11  1  0
 11 12  2  0
 11 17  1  0
 12 13  1  0
 13 14  2  0
 14 15  1  0
 15 16  1  0
 15 17  2  0
M  END
