WPC1996_minimised.pdb
     RDKit          3D

 22 23  0  0  0  0  0  0  0  0999 V2000
    8.5060   -0.0440   19.8070 O   0  0  0  0  0  0  0  0  0  0  0  0
    7.6970   -0.3900   20.6460 C   0  0  0  0  0  0  0  0  0  0  0  0
    6.3730   -0.0670   20.5620 N   0  0  0  0  0  0  0  0  0  0  0  0
    5.7530    0.6200   19.4930 C   0  0  0  0  0  0  0  0  0  0  0  0
    4.7930    1.6030   19.7580 C   0  0  0  0  0  0  0  0  0  0  0  0
    4.2550    2.2950   18.6650 C   0  0  0  0  0  0  0  0  0  0  0  0
    4.6980    1.9980   17.3670 C   0  0  0  0  0  0  0  0  0  0  0  0
    5.5960    1.0220   17.1020 N   0  0  0  0  0  0  0  0  0  0  0  0
    6.1180    0.3630   18.1540 C   0  0  0  0  0  0  0  0  0  0  0  0
    7.9660   -1.1430   21.7560 N   0  0  0  0  0  0  0  0  0  0  0  0
    9.2050   -1.6680   22.1860 C   0  0  0  0  0  0  0  0  0  0  0  0
    9.2050   -2.7750   23.0500 C   0  0  0  0  0  0  0  0  0  0  0  0
   10.4180   -3.2750   23.5500 C   0  0  0  0  0  0  0  0  0  0  0  0
   11.6230   -2.6380   23.2140 C   0  0  0  0  0  0  0  0  0  0  0  0
   11.6290   -1.5200   22.3720 C   0  0  0  0  0  0  0  0  0  0  0  0
   13.1410   -0.6410   22.0220 S   0  0  0  0  0  0  0  0  0  0  0  0
   13.1160    0.8520   23.1290 C   0  0  0  0  0  0  0  0  0  0  0  0
   11.7910    1.6530   23.0850 C   0  0  0  0  0  0  0  0  0  0  0  0
   10.7790    1.1920   24.1630 C   0  0  0  0  0  0  0  0  0  0  0  0
    9.3630    1.7550   23.9620 C   0  0  0  0  0  0  0  0  0  0  0  0
    8.5310    1.2970   25.0280 O   0  0  0  0  0  0  0  0  0  0  0  0
   10.4230   -1.0650   21.8300 C   0  0  0  0  0  0  0  0  0  0  0  0
  1  2  2  0
  2 10  1  0
  2  3  1  0
  3  4  1  0
  4  5  2  0
  4  9  1  0
  5  6  1  0
  6  7  2  0
  7  8  1  0
  8  9  2  0
 10 11  1  0
 11 12  2  0
 11 22  1  0
 12 13  1  0
 13 14  2  0
 14 15  1  0
 15 16  1  0
 15 22  2  0
 16 17  1  0
 17 18  1  0
 18 19  1  0
 19 20  1  0
 20 21  1  0
M  END
