WPC1012_minimised.pdb
     RDKit          3D

 22 23  0  0  0  0  0  0  0  0999 V2000
   12.4140    5.0820   23.1010 C   0  0  0  0  0  0  0  0  0  0  0  0
   13.6120    4.1800   22.8880 C   0  0  0  0  0  0  0  0  0  0  0  0
   14.7180    4.4560   23.3060 O   0  0  0  0  0  0  0  0  0  0  0  0
   13.3360    3.0010   22.2440 N   0  0  0  0  0  0  0  0  0  0  0  0
   14.2450    1.8430   22.2120 C   0  0  0  0  0  0  0  0  0  0  0  0
   13.7950    0.7240   23.1680 C   0  0  0  0  0  0  0  0  0  0  0  0
   12.3430    0.3390   22.9620 C   0  0  0  0  0  0  0  0  0  0  0  0
   11.9970   -0.6250   22.0030 C   0  0  0  0  0  0  0  0  0  0  0  0
   10.6460   -0.9090   21.7610 C   0  0  0  0  0  0  0  0  0  0  0  0
    9.6430   -0.2190   22.4580 C   0  0  0  0  0  0  0  0  0  0  0  0
    8.2980   -0.3470   22.0630 N   0  0  0  0  0  0  0  0  0  0  0  0
    7.8560   -0.0500   20.8030 C   0  0  0  0  0  0  0  0  0  0  0  0
    8.5940    0.1990   19.8690 O   0  0  0  0  0  0  0  0  0  0  0  0
    6.4940   -0.0080   20.6960 N   0  0  0  0  0  0  0  0  0  0  0  0
    5.8030    0.5350   19.5870 C   0  0  0  0  0  0  0  0  0  0  0  0
    4.8270    1.5130   19.8110 C   0  0  0  0  0  0  0  0  0  0  0  0
    4.2780    2.1510   18.6910 C   0  0  0  0  0  0  0  0  0  0  0  0
    4.7300    1.8120   17.4090 C   0  0  0  0  0  0  0  0  0  0  0  0
    5.6310    0.8290   17.1800 N   0  0  0  0  0  0  0  0  0  0  0  0
    6.1630    0.2190   18.2580 C   0  0  0  0  0  0  0  0  0  0  0  0
    9.9860    0.7020   23.4550 C   0  0  0  0  0  0  0  0  0  0  0  0
   11.3370    0.9770   23.7100 C   0  0  0  0  0  0  0  0  0  0  0  0
  1  2  1  0
  2  3  2  0
  2  4  1  0
  4  5  1  0
  5  6  1  0
  6  7  1  0
  7 22  2  0
  7  8  1  0
  8  9  2  0
  9 10  1  0
 10 11  1  0
 10 21  2  0
 11 12  1  0
 12 13  2  0
 12 14  1  0
 14 15  1  0
 15 16  2  0
 15 20  1  0
 16 17  1  0
 17 18  2  0
 18 19  1  0
 19 20  2  0
 21 22  1  0
M  END
