WPC1231_minimised.pdb
     RDKit          3D

 19 20  0  0  0  0  0  0  0  0999 V2000
   12.8850    5.3910   23.5900 C   0  0  0  0  0  0  0  0  0  0  0  0
   12.0160    4.5730   22.9940 C   0  0  0  0  0  0  0  0  0  0  0  0
   10.9730    3.7480   23.7140 C   0  0  0  0  0  0  0  0  0  0  0  0
   10.9820    2.2870   23.2810 C   0  0  0  0  0  0  0  0  0  0  0  0
   12.1820    1.5690   23.1210 C   0  0  0  0  0  0  0  0  0  0  0  0
   12.1610    0.2500   22.6350 C   0  0  0  0  0  0  0  0  0  0  0  0
   10.9360   -0.3680   22.3280 C   0  0  0  0  0  0  0  0  0  0  0  0
    9.7380    0.3370   22.5160 C   0  0  0  0  0  0  0  0  0  0  0  0
    8.4960   -0.2070   22.1350 N   0  0  0  0  0  0  0  0  0  0  0  0
    8.0000   -0.0800   20.8690 C   0  0  0  0  0  0  0  0  0  0  0  0
    8.6870    0.1790   19.9030 O   0  0  0  0  0  0  0  0  0  0  0  0
    6.6380   -0.1790   20.7900 N   0  0  0  0  0  0  0  0  0  0  0  0
    5.8940    0.3400   19.7020 C   0  0  0  0  0  0  0  0  0  0  0  0
    4.9390    1.3330   19.9520 C   0  0  0  0  0  0  0  0  0  0  0  0
    4.3550    1.9690   18.8480 C   0  0  0  0  0  0  0  0  0  0  0  0
    4.7490    1.6060   17.5520 C   0  0  0  0  0  0  0  0  0  0  0  0
    5.6340    0.6160   17.3010 N   0  0  0  0  0  0  0  0  0  0  0  0
    6.2030    0.0110   18.3640 C   0  0  0  0  0  0  0  0  0  0  0  0
    9.7640    1.6550   22.9870 C   0  0  0  0  0  0  0  0  0  0  0  0
  1  2  2  0
  2  3  1  0
  3  4  1  0
  4 19  2  0
  4  5  1  0
  5  6  2  0
  6  7  1  0
  7  8  2  0
  8  9  1  0
  8 19  1  0
  9 10  1  0
 10 11  2  0
 10 12  1  0
 12 13  1  0
 13 14  2  0
 13 18  1  0
 14 15  1  0
 15 16  2  0
 16 17  1  0
 17 18  2  0
M  END
