WPC1904_minimised.pdb
     RDKit          3D

 22 23  0  0  0  0  0  0  0  0999 V2000
    8.5400    5.1840   22.5810 C   0  0  0  0  0  0  0  0  0  0  0  0
   10.0010    5.1520   22.9710 C   0  0  0  0  0  0  0  0  0  0  0  0
   10.5910    6.1330   23.3940 O   0  0  0  0  0  0  0  0  0  0  0  0
   10.4430    3.8720   23.1120 O   0  0  0  0  0  0  0  0  0  0  0  0
   11.8600    3.6500   23.2020 C   0  0  0  0  0  0  0  0  0  0  0  0
   12.1350    2.2520   23.7960 C   0  0  0  0  0  0  0  0  0  0  0  0
   11.6430    1.0550   23.0020 C   0  0  0  0  0  0  0  0  0  0  0  0
   12.5630    0.1280   22.4780 C   0  0  0  0  0  0  0  0  0  0  0  0
   12.1090   -1.0220   21.8140 C   0  0  0  0  0  0  0  0  0  0  0  0
   10.7310   -1.2420   21.6640 C   0  0  0  0  0  0  0  0  0  0  0  0
    9.8140   -0.3110   22.1660 C   0  0  0  0  0  0  0  0  0  0  0  0
    8.4410   -0.4450   21.8890 N   0  0  0  0  0  0  0  0  0  0  0  0
    7.9060   -0.1550   20.6670 C   0  0  0  0  0  0  0  0  0  0  0  0
    8.5760    0.0780   19.6820 O   0  0  0  0  0  0  0  0  0  0  0  0
    6.5400   -0.0840   20.6530 N   0  0  0  0  0  0  0  0  0  0  0  0
    5.8000    0.4840   19.5870 C   0  0  0  0  0  0  0  0  0  0  0  0
    4.8660    1.4900   19.8630 C   0  0  0  0  0  0  0  0  0  0  0  0
    4.2870    2.1550   18.7750 C   0  0  0  0  0  0  0  0  0  0  0  0
    4.6730    1.8170   17.4690 C   0  0  0  0  0  0  0  0  0  0  0  0
    5.5320    0.8110   17.1940 N   0  0  0  0  0  0  0  0  0  0  0  0
    6.0860    0.1680   18.2410 C   0  0  0  0  0  0  0  0  0  0  0  0
   10.2670    0.8240   22.8470 C   0  0  0  0  0  0  0  0  0  0  0  0
  1  2  1  0
  2  3  2  0
  2  4  1  0
  4  5  1  0
  5  6  1  0
  6  7  1  0
  7 22  2  0
  7  8  1  0
  8  9  2  0
  9 10  1  0
 10 11  2  0
 11 12  1  0
 11 22  1  0
 12 13  1  0
 13 14  2  0
 13 15  1  0
 15 16  1  0
 16 17  2  0
 16 21  1  0
 17 18  1  0
 18 19  2  0
 19 20  1  0
 20 21  2  0
M  END
