WPC1894_minimised.pdb
     RDKit          3D

 23 25  0  0  0  0  0  0  0  0999 V2000
    8.9230    0.5640   20.0680 O   0  0  0  0  0  0  0  0  0  0  0  0
    8.2350    0.4600   21.0610 C   0  0  0  0  0  0  0  0  0  0  0  0
    6.8700    0.5330   21.0170 N   0  0  0  0  0  0  0  0  0  0  0  0
    6.1090    0.8620   19.8670 C   0  0  0  0  0  0  0  0  0  0  0  0
    5.0780    1.8000   19.9880 C   0  0  0  0  0  0  0  0  0  0  0  0
    4.4370    2.2170   18.8160 C   0  0  0  0  0  0  0  0  0  0  0  0
    4.8530    1.7060   17.5780 C   0  0  0  0  0  0  0  0  0  0  0  0
    5.7950    0.7440   17.4530 N   0  0  0  0  0  0  0  0  0  0  0  0
    6.4190    0.3500   18.5840 C   0  0  0  0  0  0  0  0  0  0  0  0
    8.7600    0.2460   22.3020 N   0  0  0  0  0  0  0  0  0  0  0  0
   10.1280   -0.0060   22.5390 C   0  0  0  0  0  0  0  0  0  0  0  0
   10.5000   -1.2780   22.9940 C   0  0  0  0  0  0  0  0  0  0  0  0
   11.8550   -1.6080   23.1100 C   0  0  0  0  0  0  0  0  0  0  0  0
   12.8320   -0.6480   22.8020 C   0  0  0  0  0  0  0  0  0  0  0  0
   12.4750    0.6510   22.4090 C   0  0  0  0  0  0  0  0  0  0  0  0
   13.8390    1.7460   22.0030 S   0  0  0  0  0  0  0  0  0  0  0  0
   13.3080    3.2860   22.7000 C   0  0  0  0  0  0  0  0  0  0  0  0
   14.0950    4.2980   22.8530 N   0  0  0  0  0  0  0  0  0  0  0  0
   13.3210    5.2940   23.3560 N   0  0  0  0  0  0  0  0  0  0  0  0
   12.0130    4.8980   23.4930 C   0  0  0  0  0  0  0  0  0  0  0  0
   10.7580    5.7880   24.1370 S   0  0  0  0  0  0  0  0  0  0  0  0
   12.0470    3.5880   23.1220 O   0  0  0  0  0  0  0  0  0  0  0  0
   11.1100    0.9570   22.2320 C   0  0  0  0  0  0  0  0  0  0  0  0
  1  2  2  0
  2 10  1  0
  2  3  1  0
  3  4  1  0
  4  5  2  0
  4  9  1  0
  5  6  1  0
  6  7  2  0
  7  8  1  0
  8  9  2  0
 10 11  1  0
 11 12  2  0
 11 23  1  0
 12 13  1  0
 13 14  2  0
 14 15  1  0
 15 16  1  0
 15 23  2  0
 16 17  1  0
 17 18  2  0
 17 22  1  0
 18 19  1  0
 19 20  1  0
 20 21  2  0
 20 22  1  0
M  END
