WPC1019_minimised.pdb
     RDKit          3D

 24 25  0  0  0  0  0  0  0  0999 V2000
   14.1400    6.4370   21.8920 O   0  0  0  0  0  0  0  0  0  0  0  0
   13.4410    5.4570   21.7340 C   0  0  0  0  0  0  0  0  0  0  0  0
   13.3120    4.9010   20.5270 O   0  0  0  0  0  0  0  0  0  0  0  0
   12.4020    4.9540   22.7510 C   0  0  0  0  0  0  0  0  0  0  0  0
   12.3840    3.4710   22.8780 N   0  0  0  0  0  0  0  0  0  0  0  0
   13.5220    2.7460   23.1560 C   0  0  0  0  0  0  0  0  0  0  0  0
   14.5880    3.3160   23.2240 O   0  0  0  0  0  0  0  0  0  0  0  0
   13.3880    1.2500   23.4630 C   0  0  0  0  0  0  0  0  0  0  0  0
   12.0160    0.6590   23.1900 C   0  0  0  0  0  0  0  0  0  0  0  0
   11.8360   -0.2060   22.1000 C   0  0  0  0  0  0  0  0  0  0  0  0
   10.5500   -0.6530   21.7760 C   0  0  0  0  0  0  0  0  0  0  0  0
    9.4440   -0.2280   22.5270 C   0  0  0  0  0  0  0  0  0  0  0  0
    8.1380   -0.4540   22.0530 N   0  0  0  0  0  0  0  0  0  0  0  0
    7.7300   -0.1090   20.7920 C   0  0  0  0  0  0  0  0  0  0  0  0
    8.4880    0.2220   19.9000 O   0  0  0  0  0  0  0  0  0  0  0  0
    6.3730   -0.1110   20.6390 N   0  0  0  0  0  0  0  0  0  0  0  0
    5.7100    0.4760   19.5360 C   0  0  0  0  0  0  0  0  0  0  0  0
    4.7450    1.4640   19.7680 C   0  0  0  0  0  0  0  0  0  0  0  0
    4.2350    2.1470   18.6570 C   0  0  0  0  0  0  0  0  0  0  0  0
    4.7120    1.8400   17.3750 C   0  0  0  0  0  0  0  0  0  0  0  0
    5.6050    0.8530   17.1370 N   0  0  0  0  0  0  0  0  0  0  0  0
    6.1020    0.2010   18.2070 C   0  0  0  0  0  0  0  0  0  0  0  0
    9.6350    0.5550   23.6750 C   0  0  0  0  0  0  0  0  0  0  0  0
   10.9240    0.9870   24.0160 C   0  0  0  0  0  0  0  0  0  0  0  0
  1  2  2  0
  2  3  1  0
  2  4  1  0
  4  5  1  0
  5  6  1  0
  6  7  2  0
  6  8  1  0
  8  9  1  0
  9 24  2  0
  9 10  1  0
 10 11  2  0
 11 12  1  0
 12 13  1  0
 12 23  2  0
 13 14  1  0
 14 15  2  0
 14 16  1  0
 16 17  1  0
 17 18  2  0
 17 22  1  0
 18 19  1  0
 19 20  2  0
 20 21  1  0
 21 22  2  0
 23 24  1  0
M  END
