WPC1009_minimised.pdb
     RDKit          3D

 24 25  0  0  0  0  0  0  0  0999 V2000
   12.1190    6.1980   25.2340 C   0  0  0  0  0  0  0  0  0  0  0  0
   12.2490    5.6920   23.7890 C   0  0  0  0  0  0  0  0  0  0  0  0
   12.4990    4.2810   23.7720 O   0  0  0  0  0  0  0  0  0  0  0  0
   12.6330    3.6010   22.3240 P   0  0  2  0  0  0  0  0  0  0  0  0
   13.0550    4.5570   21.2870 O   0  0  0  0  0  0  0  0  0  0  0  0
   11.1950    3.0890   21.9790 O   0  0  0  0  0  0  0  0  0  0  0  0
   13.7450    2.1620   22.4860 C   0  0  0  0  0  0  0  0  0  0  0  0
   13.3660    1.0860   23.5320 C   0  0  0  0  0  0  0  0  0  0  0  0
   12.0280    0.4400   23.2600 C   0  0  0  0  0  0  0  0  0  0  0  0
   11.8730   -0.4220   22.1630 C   0  0  0  0  0  0  0  0  0  0  0  0
   10.5950   -0.8790   21.8170 C   0  0  0  0  0  0  0  0  0  0  0  0
    9.4730   -0.4610   22.5470 C   0  0  0  0  0  0  0  0  0  0  0  0
    8.1730   -0.6820   22.0480 N   0  0  0  0  0  0  0  0  0  0  0  0
    7.7810   -0.3380   20.7810 C   0  0  0  0  0  0  0  0  0  0  0  0
    8.5410   -0.0780   19.8680 O   0  0  0  0  0  0  0  0  0  0  0  0
    6.4230   -0.2540   20.6490 N   0  0  0  0  0  0  0  0  0  0  0  0
    5.7680    0.3670   19.5590 C   0  0  0  0  0  0  0  0  0  0  0  0
    4.8190    1.3630   19.8150 C   0  0  0  0  0  0  0  0  0  0  0  0
    4.2950    2.0600   18.7190 C   0  0  0  0  0  0  0  0  0  0  0  0
    4.7430    1.7550   17.4250 C   0  0  0  0  0  0  0  0  0  0  0  0
    5.6250    0.7650   17.1660 N   0  0  0  0  0  0  0  0  0  0  0  0
    6.1360    0.1000   18.2220 C   0  0  0  0  0  0  0  0  0  0  0  0
    9.6370    0.3180   23.7000 C   0  0  0  0  0  0  0  0  0  0  0  0
   10.9160    0.7630   24.0620 C   0  0  0  0  0  0  0  0  0  0  0  0
  1  2  1  0
  2  3  1  0
  4  3  1  0
  4  5  2  0
  4  6  1  6
  4  7  1  0
  7  8  1  0
  8  9  1  0
  9 24  2  0
  9 10  1  0
 10 11  2  0
 11 12  1  0
 12 13  1  0
 12 23  2  0
 13 14  1  0
 14 15  2  0
 14 16  1  0
 16 17  1  0
 17 18  2  0
 17 22  1  0
 18 19  1  0
 19 20  2  0
 20 21  1  0
 21 22  2  0
 23 24  1  0
M  END
