WPC1450_minimised.pdb
     RDKit          3D

 23 24  0  0  1  0  0  0  0  0999 V2000
    9.4230    0.7430   20.8030 O   0  0  0  0  0  0  0  0  0  0  0  0
    8.8630   -0.1020   21.4190 C   0  0  0  0  0  0  0  0  0  0  0  0
    7.5970   -0.5260   21.0740 N   0  0  0  0  0  0  0  0  0  0  0  0
    6.8190    0.0210   20.0130 C   0  0  0  0  0  0  0  0  0  0  0  0
    5.6200    0.7270   20.2960 C   0  0  0  0  0  0  0  0  0  0  0  0
    4.9480    1.3740   19.2340 C   0  0  0  0  0  0  0  0  0  0  0  0
    5.4370    1.2250   17.9250 C   0  0  0  0  0  0  0  0  0  0  0  0
    6.5550    0.5170   17.6390 N   0  0  0  0  0  0  0  0  0  0  0  0
    7.2400   -0.0280   18.6750 C   0  0  0  0  0  0  0  0  0  0  0  0
    9.4640   -0.8260   22.4200 N   0  0  0  0  0  0  0  0  0  0  0  0
   10.8330   -0.5560   22.7170 C   0  0  0  0  0  0  0  0  0  0  0  0
   11.8150   -1.2820   22.0450 C   0  0  0  0  0  0  0  0  0  0  0  0
   13.1910   -1.0860   22.2670 C   0  0  0  0  0  0  0  0  0  0  0  0
   13.5290   -0.1640   23.2330 C   0  0  0  0  0  0  0  0  0  0  0  0
   12.6040    0.8160   23.5880 C   0  0  1  0  0  0  0  0  0  0  0  0
   12.7690    2.2210   22.5280 S   0  0  0  0  0  0  0  0  0  0  0  0
   12.9270    3.9150   22.9710 C   0  0  0  0  0  0  0  0  0  0  0  0
   11.6490    4.6250   22.5380 C   0  0  0  0  0  0  0  0  0  0  0  0
   10.6560    4.6030   23.9600 P   0  0  0  0  0  0  0  0  0  0  0  0
   10.0450    5.8920   24.6760 O   0  0  0  0  0  0  0  0  0  0  0  0
   10.3570    3.4820   24.9970 O   0  0  0  0  0  0  0  0  0  0  0  0
   11.2400    5.6870   24.8020 O   0  0  0  0  0  0  0  0  0  0  0  0
   11.2560    0.4250   23.6410 C   0  0  0  0  0  0  0  0  0  0  0  0
  1  2  2  0
  2 10  1  0
  2  3  1  0
  3  4  1  0
  4  5  2  0
  4  9  1  0
  5  6  1  0
  6  7  2  0
  7  8  1  0
  8  9  2  0
 10 11  1  0
 11 12  2  0
 11 23  1  0
 12 13  1  0
 13 14  1  0
 14 15  1  0
 15 16  1  6
 15 23  1  0
 16 17  1  0
 17 18  1  0
 18 19  1  0
 19 20  2  0
 19 21  1  0
 19 22  1  0
M  END
