WPC1623_minimised.pdb
     RDKit          3D

 24 26  0  0  0  0  0  0  0  0999 V2000
    8.5240    5.7030   22.3030 C   0  0  0  0  0  0  0  0  0  0  0  0
    9.7350    5.0320   22.8780 C   0  0  0  0  0  0  0  0  0  0  0  0
    9.7590    3.5520   23.0580 C   0  0  0  0  0  0  0  0  0  0  0  0
   11.0510    3.4540   23.7200 N   0  0  0  0  0  0  0  0  0  0  0  0
   11.5480    2.1760   24.2540 C   0  0  0  0  0  0  0  0  0  0  0  0
   11.2840    0.9570   23.3870 C   0  0  0  0  0  0  0  0  0  0  0  0
   12.3450    0.3060   22.7300 C   0  0  0  0  0  0  0  0  0  0  0  0
   12.0910   -0.8090   21.9130 C   0  0  0  0  0  0  0  0  0  0  0  0
   10.7700   -1.2400   21.7150 C   0  0  0  0  0  0  0  0  0  0  0  0
    9.7120   -0.5730   22.3470 C   0  0  0  0  0  0  0  0  0  0  0  0
    8.3770   -0.8040   21.9660 N   0  0  0  0  0  0  0  0  0  0  0  0
    7.9040   -0.4150   20.7420 C   0  0  0  0  0  0  0  0  0  0  0  0
    8.6160   -0.1390   19.7970 O   0  0  0  0  0  0  0  0  0  0  0  0
    6.5430   -0.2890   20.6870 N   0  0  0  0  0  0  0  0  0  0  0  0
    5.8550    0.3490   19.6250 C   0  0  0  0  0  0  0  0  0  0  0  0
    4.9420    1.3710   19.9150 C   0  0  0  0  0  0  0  0  0  0  0  0
    4.3920    2.0790   18.8370 C   0  0  0  0  0  0  0  0  0  0  0  0
    4.7810    1.7610   17.5260 C   0  0  0  0  0  0  0  0  0  0  0  0
    5.6290    0.7490   17.2380 N   0  0  0  0  0  0  0  0  0  0  0  0
    6.1580    0.0700   18.2740 C   0  0  0  0  0  0  0  0  0  0  0  0
    9.9740    0.4800   23.2260 C   0  0  0  0  0  0  0  0  0  0  0  0
   11.6540    4.6910   23.8750 C   0  0  0  0  0  0  0  0  0  0  0  0
   12.7340    4.8960   24.3920 O   0  0  0  0  0  0  0  0  0  0  0  0
   10.7540    5.6360   23.3850 N   0  0  0  0  0  0  0  0  0  0  0  0
  1  2  1  0
  2  3  1  0
  2 24  2  0
  3  4  1  0
  4 22  1  0
  4  5  1  0
  5  6  1  0
  6 21  1  0
  6  7  2  0
  7  8  1  0
  8  9  2  0
  9 10  1  0
 10 11  1  0
 10 21  2  0
 11 12  1  0
 12 13  2  0
 12 14  1  0
 14 15  1  0
 15 16  2  0
 15 20  1  0
 16 17  1  0
 17 18  2  0
 18 19  1  0
 19 20  2  0
 22 24  1  0
 22 23  2  0
M  END
