WPC1735_minimised.pdb
     RDKit          3D

 24 26  0  0  0  0  0  0  0  0999 V2000
    8.5440   -0.0290   19.7220 O   0  0  0  0  0  0  0  0  0  0  0  0
    7.8960   -0.1650   20.7400 C   0  0  0  0  0  0  0  0  0  0  0  0
    6.5310   -0.0510   20.7530 N   0  0  0  0  0  0  0  0  0  0  0  0
    5.7750    0.4760   19.6760 C   0  0  0  0  0  0  0  0  0  0  0  0
    4.8410    1.4870   19.9340 C   0  0  0  0  0  0  0  0  0  0  0  0
    4.2370    2.1120   18.8360 C   0  0  0  0  0  0  0  0  0  0  0  0
    4.5960    1.7280   17.5350 C   0  0  0  0  0  0  0  0  0  0  0  0
    5.4520    0.7140   17.2770 N   0  0  0  0  0  0  0  0  0  0  0  0
    6.0330    0.1130   18.3340 C   0  0  0  0  0  0  0  0  0  0  0  0
    8.4640   -0.3890   21.9640 N   0  0  0  0  0  0  0  0  0  0  0  0
    9.8540   -0.2940   22.1810 C   0  0  0  0  0  0  0  0  0  0  0  0
   10.7240   -1.2060   21.5710 C   0  0  0  0  0  0  0  0  0  0  0  0
   12.1110   -1.0010   21.6250 C   0  0  0  0  0  0  0  0  0  0  0  0
   12.6230    0.1210   22.2920 C   0  0  0  0  0  0  0  0  0  0  0  0
   11.7560    1.0270   22.9310 C   0  0  0  0  0  0  0  0  0  0  0  0
   12.3480    2.1610   23.7520 C   0  0  0  0  0  0  0  0  0  0  0  0
   12.0430    3.5580   23.3890 N   0  0  0  0  0  0  0  0  0  0  0  0
   10.7710    4.1170   23.3280 C   0  0  0  0  0  0  0  0  0  0  0  0
   10.8910    5.4670   23.5240 C   0  0  0  0  0  0  0  0  0  0  0  0
   12.2320    5.7200   23.6840 N   0  0  0  0  0  0  0  0  0  0  0  0
   12.7600    6.9060   24.2490 O   0  0  0  0  0  0  0  0  0  0  0  0
   12.9810    4.5660   23.5470 C   0  0  0  0  0  0  0  0  0  0  0  0
   14.1910    4.4800   23.6690 O   0  0  0  0  0  0  0  0  0  0  0  0
   10.3690    0.7930   22.8970 C   0  0  0  0  0  0  0  0  0  0  0  0
  1  2  2  0
  2  3  1  0
  2 10  1  0
  3  4  1  0
  4  5  2  0
  4  9  1  0
  5  6  1  0
  6  7  2  0
  7  8  1  0
  8  9  2  0
 10 11  1  0
 11 24  1  0
 11 12  2  0
 12 13  1  0
 13 14  2  0
 14 15  1  0
 15 16  1  0
 15 24  2  0
 16 17  1  0
 17 18  1  0
 17 22  1  0
 18 19  2  0
 19 20  1  0
 20 21  1  0
 20 22  1  0
 22 23  2  0
M  END
