WPC1047_minimised.pdb
     RDKit          3D

 20 21  0  0  0  0  0  0  0  0999 V2000
   14.2690    4.3310   23.5100 O   0  0  0  0  0  0  0  0  0  0  0  0
   13.4100    3.6230   23.0230 C   0  0  0  0  0  0  0  0  0  0  0  0
   12.3150    4.1760   22.4750 O   0  0  0  0  0  0  0  0  0  0  0  0
   13.4150    2.0870   23.1380 C   0  0  0  0  0  0  0  0  0  0  0  0
   12.0700    1.4090   22.9470 C   0  0  0  0  0  0  0  0  0  0  0  0
   11.9360    0.4020   21.9790 C   0  0  0  0  0  0  0  0  0  0  0  0
   10.6850   -0.1850   21.7530 C   0  0  0  0  0  0  0  0  0  0  0  0
    9.5630    0.2470   22.4770 C   0  0  0  0  0  0  0  0  0  0  0  0
    8.2670   -0.1500   22.0900 N   0  0  0  0  0  0  0  0  0  0  0  0
    7.7960   -0.0070   20.8120 C   0  0  0  0  0  0  0  0  0  0  0  0
    8.5030    0.2040   19.8450 O   0  0  0  0  0  0  0  0  0  0  0  0
    6.4330   -0.0390   20.7240 N   0  0  0  0  0  0  0  0  0  0  0  0
    5.7190    0.4820   19.6190 C   0  0  0  0  0  0  0  0  0  0  0  0
    4.7740    1.4900   19.8420 C   0  0  0  0  0  0  0  0  0  0  0  0
    4.2220    2.1240   18.7230 C   0  0  0  0  0  0  0  0  0  0  0  0
    4.6370    1.7460   17.4370 C   0  0  0  0  0  0  0  0  0  0  0  0
    5.5090    0.7380   17.2110 N   0  0  0  0  0  0  0  0  0  0  0  0
    6.0480    0.1340   18.2900 C   0  0  0  0  0  0  0  0  0  0  0  0
    9.7130    1.1900   23.5040 C   0  0  0  0  0  0  0  0  0  0  0  0
   10.9700    1.7600   23.7510 C   0  0  0  0  0  0  0  0  0  0  0  0
  1  2  2  0
  2  3  1  0
  2  4  1  0
  4  5  1  0
  5 20  2  0
  5  6  1  0
  6  7  2  0
  7  8  1  0
  8  9  1  0
  8 19  2  0
  9 10  1  0
 10 11  2  0
 10 12  1  0
 12 13  1  0
 13 14  2  0
 13 18  1  0
 14 15  1  0
 15 16  2  0
 16 17  1  0
 17 18  2  0
 19 20  1  0
M  END
