WPC1627_minimised.pdb
     RDKit          3D

 24 25  0  0  0  0  0  0  0  0999 V2000
   10.1450    2.6930   22.1410 C   0  0  0  0  0  0  0  0  0  0  0  0
   11.0360    3.7210   22.8960 C   0  0  0  0  0  0  0  0  0  0  0  0
   12.0550    4.3860   21.9300 C   0  0  0  0  0  0  0  0  0  0  0  0
   10.1630    4.8490   23.5130 C   0  0  0  0  0  0  0  0  0  0  0  0
   11.8160    2.9570   23.9810 C   0  0  0  0  0  0  0  0  0  0  0  0
   13.0270    2.8280   23.9310 O   0  0  0  0  0  0  0  0  0  0  0  0
   11.0240    2.3060   25.1150 C   0  0  0  0  0  0  0  0  0  0  0  0
   11.4620    0.8440   25.3540 C   0  0  0  0  0  0  0  0  0  0  0  0
   11.2530    0.0350   24.0990 C   0  0  0  0  0  0  0  0  0  0  0  0
   12.3280   -0.1920   23.2210 C   0  0  0  0  0  0  0  0  0  0  0  0
   12.1150   -0.8610   22.0100 C   0  0  0  0  0  0  0  0  0  0  0  0
   10.8110   -1.2220   21.6510 C   0  0  0  0  0  0  0  0  0  0  0  0
    9.7280   -0.9240   22.4870 C   0  0  0  0  0  0  0  0  0  0  0  0
    8.4090   -1.0350   22.0070 N   0  0  0  0  0  0  0  0  0  0  0  0
    7.9570   -0.3990   20.8810 C   0  0  0  0  0  0  0  0  0  0  0  0
    8.6650    0.2130   20.1040 O   0  0  0  0  0  0  0  0  0  0  0  0
    6.6040   -0.4840   20.7160 N   0  0  0  0  0  0  0  0  0  0  0  0
    5.8990    0.1450   19.6640 C   0  0  0  0  0  0  0  0  0  0  0  0
    4.9230    1.1050   19.9560 C   0  0  0  0  0  0  0  0  0  0  0  0
    4.3420    1.7890   18.8800 C   0  0  0  0  0  0  0  0  0  0  0  0
    4.7490    1.4940   17.5700 C   0  0  0  0  0  0  0  0  0  0  0  0
    5.6690    0.5470   17.2790 N   0  0  0  0  0  0  0  0  0  0  0  0
    6.2470   -0.0900   18.3160 C   0  0  0  0  0  0  0  0  0  0  0  0
    9.9530   -0.3430   23.7360 C   0  0  0  0  0  0  0  0  0  0  0  0
  1  2  1  0
  2  3  1  0
  2  4  1  0
  2  5  1  0
  5  6  2  0
  5  7  1  0
  7  8  1  0
  8  9  1  0
  9 24  2  0
  9 10  1  0
 10 11  2  0
 11 12  1  0
 12 13  2  0
 13 14  1  0
 13 24  1  0
 14 15  1  0
 15 16  2  0
 15 17  1  0
 17 18  1  0
 18 19  2  0
 18 23  1  0
 19 20  1  0
 20 21  2  0
 21 22  1  0
 22 23  2  0
M  END
