WPC1243_minimised.pdb
     RDKit          3D

 21 23  0  0  1  0  0  0  0  0999 V2000
    8.5760    0.0690   19.7600 O   0  0  0  0  0  0  0  0  0  0  0  0
    7.8850   -0.3170   20.6800 C   0  0  0  0  0  0  0  0  0  0  0  0
    6.5260   -0.4330   20.5770 N   0  0  0  0  0  0  0  0  0  0  0  0
    5.7980    0.2000   19.5420 C   0  0  0  0  0  0  0  0  0  0  0  0
    4.8790    1.2050   19.8690 C   0  0  0  0  0  0  0  0  0  0  0  0
    4.3270    1.9510   18.8190 C   0  0  0  0  0  0  0  0  0  0  0  0
    4.7170    1.6800   17.4980 C   0  0  0  0  0  0  0  0  0  0  0  0
    5.5750    0.6880   17.1750 N   0  0  0  0  0  0  0  0  0  0  0  0
    6.1120   -0.0240   18.1860 C   0  0  0  0  0  0  0  0  0  0  0  0
    8.3610   -0.5520   21.9370 N   0  0  0  0  0  0  0  0  0  0  0  0
    9.4880    0.1340   22.4180 C   0  0  0  0  0  0  0  0  0  0  0  0
   10.7740   -0.4240   22.3790 C   0  0  0  0  0  0  0  0  0  0  0  0
   11.8780    0.3530   22.7730 C   0  0  0  0  0  0  0  0  0  0  0  0
   11.6890    1.6800   23.2010 C   0  0  0  0  0  0  0  0  0  0  0  0
   10.3970    2.2380   23.2270 C   0  0  0  0  0  0  0  0  0  0  0  0
   10.0570    3.9300   23.6800 S   0  0  0  0  0  0  0  0  0  0  0  0
   11.6590    4.5910   24.2490 C   0  0  1  0  0  0  0  0  0  0  0  0
   12.5370    5.0870   23.1240 C   0  0  0  0  0  0  0  0  0  0  0  0
   11.7900    6.0730   24.0040 C   0  0  2  0  0  0  0  0  0  0  0  0
   12.7500    6.0990   25.0200 O   0  0  0  0  0  0  0  0  0  0  0  0
    9.3060    1.4570   22.8370 C   0  0  0  0  0  0  0  0  0  0  0  0
  1  2  2  0
  2  3  1  0
  2 10  1  0
  3  4  1  0
  4  5  2  0
  4  9  1  0
  5  6  1  0
  6  7  2  0
  7  8  1  0
  8  9  2  0
 10 11  1  0
 11 21  1  0
 11 12  2  0
 12 13  1  0
 13 14  2  0
 14 15  1  0
 15 16  1  0
 15 21  2  0
 17 16  1  6
 17 18  1  0
 17 19  1  0
 18 19  1  0
 19 20  1  1
M  END
