WPC1071_minimised.pdb
     RDKit          3D

 24 26  0  0  1  0  0  0  0  0999 V2000
   14.1590    4.6170   23.1320 N   0  0  0  0  0  0  0  0  0  0  0  0
   12.7910    4.6580   23.0720 C   0  0  2  0  0  0  0  0  0  0  0  0
   12.3940    6.0360   24.0210 S   0  0  0  0  0  0  0  0  0  0  0  0
   10.8170    5.2750   24.5550 C   0  0  0  0  0  0  0  0  0  0  0  0
   11.0400    3.7790   24.3920 C   0  0  0  0  0  0  0  0  0  0  0  0
   10.3920    2.9290   24.9870 O   0  0  0  0  0  0  0  0  0  0  0  0
   12.1310    3.5180   23.5820 N   0  0  0  0  0  0  0  0  0  0  0  0
   12.7130    2.1550   23.5360 C   0  0  0  0  0  0  0  0  0  0  0  0
   12.0360    1.0640   22.7160 C   0  0  0  0  0  0  0  0  0  0  0  0
   12.8380    0.0140   22.2330 C   0  0  0  0  0  0  0  0  0  0  0  0
   12.2550   -1.1060   21.6250 C   0  0  0  0  0  0  0  0  0  0  0  0
   10.8600   -1.1860   21.5030 C   0  0  0  0  0  0  0  0  0  0  0  0
   10.0560   -0.1280   21.9460 C   0  0  0  0  0  0  0  0  0  0  0  0
    8.6570   -0.1770   21.7880 N   0  0  0  0  0  0  0  0  0  0  0  0
    8.0120   -0.1590   20.5840 C   0  0  0  0  0  0  0  0  0  0  0  0
    8.5730   -0.2580   19.5120 O   0  0  0  0  0  0  0  0  0  0  0  0
    6.6630    0.0430   20.6810 N   0  0  0  0  0  0  0  0  0  0  0  0
    5.8500    0.5200   19.6250 C   0  0  0  0  0  0  0  0  0  0  0  0
    4.9380    1.5470   19.8980 C   0  0  0  0  0  0  0  0  0  0  0  0
    4.2650    2.1270   18.8150 C   0  0  0  0  0  0  0  0  0  0  0  0
    4.5410    1.6860   17.5120 C   0  0  0  0  0  0  0  0  0  0  0  0
    5.3680    0.6520   17.2450 N   0  0  0  0  0  0  0  0  0  0  0  0
    6.0130    0.0910   18.2880 C   0  0  0  0  0  0  0  0  0  0  0  0
   10.6410    0.9940   22.5460 C   0  0  0  0  0  0  0  0  0  0  0  0
  2  1  1  1
  2  3  1  0
  2  7  1  0
  3  4  1  0
  4  5  1  0
  5  6  2  0
  5  7  1  0
  7  8  1  0
  8  9  1  0
  9 24  1  0
  9 10  2  0
 10 11  1  0
 11 12  2  0
 12 13  1  0
 13 14  1  0
 13 24  2  0
 14 15  1  0
 15 16  2  0
 15 17  1  0
 17 18  1  0
 18 19  2  0
 18 23  1  0
 19 20  1  0
 20 21  2  0
 21 22  1  0
 22 23  2  0
M  END
