WPC1278_minimised.pdb
     RDKit          3D

 22 23  0  0  1  0  0  0  0  0999 V2000
    9.4820    0.6420   20.6700 O   0  0  0  0  0  0  0  0  0  0  0  0
    8.8530   -0.2410   21.3630 C   0  0  0  0  0  0  0  0  0  0  0  0
    7.5440   -0.4900   21.0620 N   0  0  0  0  0  0  0  0  0  0  0  0
    6.7920    0.0720   20.0140 C   0  0  0  0  0  0  0  0  0  0  0  0
    5.6450    0.7870   20.3170 C   0  0  0  0  0  0  0  0  0  0  0  0
    4.9900    1.4210   19.2500 C   0  0  0  0  0  0  0  0  0  0  0  0
    5.4800    1.2690   17.9450 C   0  0  0  0  0  0  0  0  0  0  0  0
    6.5660    0.5290   17.6450 N   0  0  0  0  0  0  0  0  0  0  0  0
    7.2690   -0.0050   18.6700 C   0  0  0  0  0  0  0  0  0  0  0  0
    9.4160   -0.8630   22.4270 N   0  0  0  0  0  0  0  0  0  0  0  0
   10.7690   -0.5580   22.7880 C   0  0  1  0  0  0  0  0  0  0  0  0
   11.8040   -1.2240   22.0750 C   0  0  0  0  0  0  0  0  0  0  0  0
   13.1110   -0.8160   22.3140 C   0  0  0  0  0  0  0  0  0  0  0  0
   13.3260    0.5870   22.9380 C   0  0  0  0  0  0  0  0  0  0  0  0
   12.2330    1.4730   23.3390 C   0  0  1  0  0  0  0  0  0  0  0  0
   11.9930    2.8850   22.1340 S   0  0  0  0  0  0  0  0  0  0  0  0
   12.0180    4.3840   23.3320 C   0  0  0  0  0  0  0  0  0  0  0  0
   10.3070    5.3880   22.9360 P   0  0  0  0  0  0  0  0  0  0  0  0
    9.9860    6.0020   24.9390 O   0  0  0  0  0  0  0  0  0  0  0  0
    9.1770    4.1940   22.6980 O   0  0  0  0  0  0  0  0  0  0  0  0
   10.4040    5.0960   24.4270 O   0  0  0  0  0  0  0  0  0  0  0  0
   11.0270    0.7780   23.5020 C   0  0  0  0  0  0  0  0  0  0  0  0
  1  2  2  0
  2 10  1  0
  2  3  1  0
  3  4  1  0
  4  5  2  0
  4  9  1  0
  5  6  1  0
  6  7  2  0
  7  8  1  0
  8  9  2  0
 11 10  1  6
 11 12  1  0
 11 22  1  0
 12 13  1  0
 13 14  1  0
 14 15  1  0
 15 16  1  6
 15 22  1  0
 16 17  1  0
 17 18  1  0
 18 19  2  0
 18 20  1  0
 18 21  1  0
M  END
