WPC1955_minimised.pdb
     RDKit          3D

 22 23  0  0  1  0  0  0  0  0999 V2000
   12.6380    5.2010   22.5250 C   0  0  0  0  0  0  0  0  0  0  0  0
   12.6080    3.6770   22.6840 C   0  0  1  0  0  0  0  0  0  0  0  0
   14.0020    3.2480   22.8040 N   0  0  0  0  0  0  0  0  0  0  0  0
   11.7230    3.2390   23.8850 C   0  0  1  0  0  0  0  0  0  0  0  0
   10.2330    3.5930   23.6570 C   0  0  0  0  0  0  0  0  0  0  0  0
   11.8900    1.7500   24.3090 C   0  0  0  0  0  0  0  0  0  0  0  0
   11.4800    0.6980   23.2990 C   0  0  0  0  0  0  0  0  0  0  0  0
   12.4530   -0.0570   22.6190 C   0  0  0  0  0  0  0  0  0  0  0  0
   12.0650   -1.0960   21.7590 C   0  0  0  0  0  0  0  0  0  0  0  0
   10.7010   -1.3610   21.5610 C   0  0  0  0  0  0  0  0  0  0  0  0
    9.7320   -0.5870   22.2090 C   0  0  0  0  0  0  0  0  0  0  0  0
    8.3690   -0.7140   21.8820 N   0  0  0  0  0  0  0  0  0  0  0  0
    7.8720   -0.3920   20.6500 C   0  0  0  0  0  0  0  0  0  0  0  0
    8.5670   -0.1980   19.6720 O   0  0  0  0  0  0  0  0  0  0  0  0
    6.5130   -0.2450   20.6250 N   0  0  0  0  0  0  0  0  0  0  0  0
    5.8020    0.3660   19.5630 C   0  0  0  0  0  0  0  0  0  0  0  0
    4.8800    1.3780   19.8560 C   0  0  0  0  0  0  0  0  0  0  0  0
    4.3050    2.0660   18.7790 C   0  0  0  0  0  0  0  0  0  0  0  0
    4.6810    1.7410   17.4680 C   0  0  0  0  0  0  0  0  0  0  0  0
    5.5330    0.7330   17.1760 N   0  0  0  0  0  0  0  0  0  0  0  0
    6.0870    0.0720   18.2120 C   0  0  0  0  0  0  0  0  0  0  0  0
   10.1200    0.4130   23.1030 C   0  0  0  0  0  0  0  0  0  0  0  0
  2  1  1  1
  2  3  1  0
  2  4  1  0
  4  5  1  6
  4  6  1  0
  6  7  1  0
  7 22  2  0
  7  8  1  0
  8  9  2  0
  9 10  1  0
 10 11  2  0
 11 12  1  0
 11 22  1  0
 12 13  1  0
 13 14  2  0
 13 15  1  0
 15 16  1  0
 16 17  2  0
 16 21  1  0
 17 18  1  0
 18 19  2  0
 19 20  1  0
 20 21  2  0
M  END
