WPC2467_minimised.pdb
     RDKit          3D

 24 25  0  0  0  0  0  0  0  0999 V2000
    7.6400    4.9690   21.8970 C   0  0  0  0  0  0  0  0  0  0  0  0
    8.2250    3.5820   22.9520 S   0  0  0  0  0  0  0  0  0  0  0  0
    9.7960    4.2530   23.5580 C   0  0  0  0  0  0  0  0  0  0  0  0
   10.2820    5.8410   23.3480 S   0  0  0  0  0  0  0  0  0  0  0  0
   10.6600    3.2350   23.9230 N   0  0  0  0  0  0  0  0  0  0  0  0
   10.2020    2.1030   24.7640 C   0  0  0  0  0  0  0  0  0  0  0  0
   12.0060    3.2290   23.2930 C   0  0  0  0  0  0  0  0  0  0  0  0
   12.8090    1.9000   23.2880 C   0  0  0  0  0  0  0  0  0  0  0  0
   12.2090    0.6970   22.5600 C   0  0  0  0  0  0  0  0  0  0  0  0
   12.9910   -0.4650   22.4750 C   0  0  0  0  0  0  0  0  0  0  0  0
   12.4130   -1.6860   22.0970 C   0  0  0  0  0  0  0  0  0  0  0  0
   11.0430   -1.7500   21.7980 C   0  0  0  0  0  0  0  0  0  0  0  0
   10.2770   -0.5790   21.7940 C   0  0  0  0  0  0  0  0  0  0  0  0
    8.8840   -0.6190   21.5840 N   0  0  0  0  0  0  0  0  0  0  0  0
    8.2540   -0.3780   20.3980 C   0  0  0  0  0  0  0  0  0  0  0  0
    8.8170   -0.3310   19.3260 O   0  0  0  0  0  0  0  0  0  0  0  0
    6.9150   -0.1350   20.5360 N   0  0  0  0  0  0  0  0  0  0  0  0
    6.0960    0.4420   19.5350 C   0  0  0  0  0  0  0  0  0  0  0  0
    5.2080    1.4650   19.8910 C   0  0  0  0  0  0  0  0  0  0  0  0
    4.5150    2.1150   18.8610 C   0  0  0  0  0  0  0  0  0  0  0  0
    4.7600    1.7580   17.5270 C   0  0  0  0  0  0  0  0  0  0  0  0
    5.5740    0.7370   17.1820 N   0  0  0  0  0  0  0  0  0  0  0  0
    6.2240    0.0980   18.1730 C   0  0  0  0  0  0  0  0  0  0  0  0
   10.8720    0.6450   22.1210 C   0  0  0  0  0  0  0  0  0  0  0  0
  1  2  1  0
  2  3  1  0
  3  4  2  0
  3  5  1  0
  5  6  1  0
  5  7  1  0
  7  8  1  0
  8  9  1  0
  9 24  2  0
  9 10  1  0
 10 11  2  0
 11 12  1  0
 12 13  2  0
 13 14  1  0
 13 24  1  0
 14 15  1  0
 15 16  2  0
 15 17  1  0
 17 18  1  0
 18 19  2  0
 18 23  1  0
 19 20  1  0
 20 21  2  0
 21 22  1  0
 22 23  2  0
M  END
