WPC2446_minimised.pdb
     RDKit          3D

 24 25  0  0  0  0  0  0  0  0999 V2000
    8.3220    5.1910   22.0980 C   0  0  0  0  0  0  0  0  0  0  0  0
    9.0110    5.8940   23.1520 O   0  0  0  0  0  0  0  0  0  0  0  0
   10.4390    5.6580   23.1850 C   0  0  0  0  0  0  0  0  0  0  0  0
   10.8360    4.2840   23.7640 C   0  0  0  0  0  0  0  0  0  0  0  0
   10.1480    3.7280   24.6010 O   0  0  0  0  0  0  0  0  0  0  0  0
   12.0200    3.6980   23.3210 N   0  0  0  0  0  0  0  0  0  0  0  0
   13.0490    4.4560   22.5830 C   0  0  0  0  0  0  0  0  0  0  0  0
   12.4060    2.3390   23.7640 C   0  0  0  0  0  0  0  0  0  0  0  0
   11.8600    1.1650   22.9700 C   0  0  0  0  0  0  0  0  0  0  0  0
   12.7450    0.1980   22.4580 C   0  0  0  0  0  0  0  0  0  0  0  0
   12.2510   -0.9430   21.8080 C   0  0  0  0  0  0  0  0  0  0  0  0
   10.8670   -1.1240   21.6720 C   0  0  0  0  0  0  0  0  0  0  0  0
    9.9810   -0.1610   22.1740 C   0  0  0  0  0  0  0  0  0  0  0  0
    8.5960   -0.2870   21.9470 N   0  0  0  0  0  0  0  0  0  0  0  0
    8.0190   -0.0700   20.7290 C   0  0  0  0  0  0  0  0  0  0  0  0
    8.6580    0.1220   19.7160 O   0  0  0  0  0  0  0  0  0  0  0  0
    6.6510   -0.0220   20.7440 N   0  0  0  0  0  0  0  0  0  0  0  0
    5.8790    0.4950   19.6740 C   0  0  0  0  0  0  0  0  0  0  0  0
    4.9410    1.5000   19.9360 C   0  0  0  0  0  0  0  0  0  0  0  0
    4.3410    2.1310   18.8390 C   0  0  0  0  0  0  0  0  0  0  0  0
    4.7080    1.7590   17.5380 C   0  0  0  0  0  0  0  0  0  0  0  0
    5.5670    0.7490   17.2760 N   0  0  0  0  0  0  0  0  0  0  0  0
    6.1430    0.1410   18.3320 C   0  0  0  0  0  0  0  0  0  0  0  0
   10.4750    0.9750   22.8270 C   0  0  0  0  0  0  0  0  0  0  0  0
  1  2  1  0
  2  3  1  0
  3  4  1  0
  4  5  2  0
  4  6  1  0
  6  7  1  0
  6  8  1  0
  8  9  1  0
  9 24  2  0
  9 10  1  0
 10 11  2  0
 11 12  1  0
 12 13  2  0
 13 14  1  0
 13 24  1  0
 14 15  1  0
 15 16  2  0
 15 17  1  0
 17 18  1  0
 18 19  2  0
 18 23  1  0
 19 20  1  0
 20 21  2  0
 21 22  1  0
 22 23  2  0
M  END
