WPC2713_minimised.pdb
     RDKit          3D

 23 24  0  0  0  0  0  0  0  0999 V2000
   16.4500    0.8500   19.6640 O   0  0  0  0  0  0  0  0  0  0  0  0
   15.3400    0.4410   19.9180 C   0  0  0  0  0  0  0  0  0  0  0  0
   14.6360   -0.2610   19.0160 O   0  0  0  0  0  0  0  0  0  0  0  0
   14.6190    0.6720   21.2410 C   0  0  0  0  0  0  0  0  0  0  0  0
   14.0250   -0.6070   21.8850 C   0  0  0  0  0  0  0  0  0  0  0  0
   12.6690   -0.3080   22.5430 C   0  0  0  0  0  0  0  0  0  0  0  0
   12.8790    0.9770   23.8460 S   0  0  0  0  0  0  0  0  0  0  0  0
   11.4440    1.9920   23.6090 C   0  0  0  0  0  0  0  0  0  0  0  0
   10.2010    1.3860   23.3850 C   0  0  0  0  0  0  0  0  0  0  0  0
    9.0930    2.1720   23.0580 C   0  0  0  0  0  0  0  0  0  0  0  0
   11.5700    3.3890   23.5430 C   0  0  0  0  0  0  0  0  0  0  0  0
   10.4460    4.1810   23.2590 C   0  0  0  0  0  0  0  0  0  0  0  0
    7.9050    1.5500   22.6380 N   0  0  0  0  0  0  0  0  0  0  0  0
    9.2060    3.5690   23.0110 C   0  0  0  0  0  0  0  0  0  0  0  0
    7.6830    1.1480   21.3500 C   0  0  0  0  0  0  0  0  0  0  0  0
    8.5400    1.1010   20.4860 O   0  0  0  0  0  0  0  0  0  0  0  0
    6.3710    0.8510   21.1080 N   0  0  0  0  0  0  0  0  0  0  0  0
    5.7420    1.0190   19.8530 C   0  0  0  0  0  0  0  0  0  0  0  0
    6.2470    0.4690   18.6520 C   0  0  0  0  0  0  0  0  0  0  0  0
    4.6560    1.8980   19.7960 C   0  0  0  0  0  0  0  0  0  0  0  0
    5.7310    0.7500   17.4340 N   0  0  0  0  0  0  0  0  0  0  0  0
    4.1460    2.2210   18.5360 C   0  0  0  0  0  0  0  0  0  0  0  0
    4.7290    1.6590   17.3940 C   0  0  0  0  0  0  0  0  0  0  0  0
  1  2  2  0
  2  3  1  0
  2  4  1  0
  4  5  1  0
  5  6  1  0
  6  7  1  0
  7  8  1  0
  8 11  2  0
  8  9  1  0
  9 10  2  0
 10 13  1  0
 10 14  1  0
 11 12  1  0
 12 14  2  0
 13 15  1  0
 15 16  2  0
 15 17  1  0
 17 18  1  0
 18 19  2  0
 18 20  1  0
 19 21  1  0
 20 22  2  0
 21 23  2  0
 22 23  1  0
M  END
