WPC2015_minimised.pdb
     RDKit          3D

 24 26  0  0  0  0  0  0  0  0999 V2000
   10.6090    5.3510   23.5690 C   0  0  0  0  0  0  0  0  0  0  0  0
   11.9280    4.6960   23.1830 C   0  0  0  0  0  0  0  0  0  0  0  0
   12.8490    5.5010   22.6030 N   0  0  0  0  0  0  0  0  0  0  0  0
   14.0350    4.9320   22.2930 C   0  0  0  0  0  0  0  0  0  0  0  0
   14.3080    3.5790   22.5790 C   0  0  0  0  0  0  0  0  0  0  0  0
   13.4050    2.7750   23.1840 N   0  0  0  0  0  0  0  0  0  0  0  0
   12.2070    3.3340   23.4770 C   0  0  0  0  0  0  0  0  0  0  0  0
   11.0580    2.3660   24.4370 S   0  0  0  0  0  0  0  0  0  0  0  0
   10.8300    0.9130   23.4390 C   0  0  0  0  0  0  0  0  0  0  0  0
   11.8950    0.0690   23.0780 C   0  0  0  0  0  0  0  0  0  0  0  0
   11.6540   -1.0750   22.2980 C   0  0  0  0  0  0  0  0  0  0  0  0
   10.3470   -1.3740   21.8810 C   0  0  0  0  0  0  0  0  0  0  0  0
    9.2900   -0.5320   22.2520 C   0  0  0  0  0  0  0  0  0  0  0  0
    7.9930   -0.7390   21.7570 N   0  0  0  0  0  0  0  0  0  0  0  0
    7.6210   -0.3530   20.5040 C   0  0  0  0  0  0  0  0  0  0  0  0
    8.4030   -0.0730   19.6170 O   0  0  0  0  0  0  0  0  0  0  0  0
    6.2660   -0.2330   20.3750 N   0  0  0  0  0  0  0  0  0  0  0  0
    5.6280    0.4470   19.3150 C   0  0  0  0  0  0  0  0  0  0  0  0
    4.6770    1.4320   19.6070 C   0  0  0  0  0  0  0  0  0  0  0  0
    4.1710    2.1830   18.5390 C   0  0  0  0  0  0  0  0  0  0  0  0
    4.6450    1.9460   17.2400 C   0  0  0  0  0  0  0  0  0  0  0  0
    5.5340    0.9710   16.9480 N   0  0  0  0  0  0  0  0  0  0  0  0
    6.0170    0.2470   17.9750 C   0  0  0  0  0  0  0  0  0  0  0  0
    9.5300    0.6050   23.0290 C   0  0  0  0  0  0  0  0  0  0  0  0
  1  2  1  0
  2  3  2  0
  2  7  1  0
  3  4  1  0
  4  5  2  0
  5  6  1  0
  6  7  2  0
  7  8  1  0
  8  9  1  0
  9 24  1  0
  9 10  2  0
 10 11  1  0
 11 12  2  0
 12 13  1  0
 13 14  1  0
 13 24  2  0
 14 15  1  0
 15 16  2  0
 15 17  1  0
 17 18  1  0
 18 19  2  0
 18 23  1  0
 19 20  1  0
 20 21  2  0
 21 22  1  0
 22 23  2  0
M  END
