WPC2816_minimised.pdb
     RDKit          3D

 18 19  0  0  0  0  0  0  0  0999 V2000
   13.8740   -0.9710   20.5200 N   0  0  0  0  0  0  0  0  0  0  0  0
   13.5710   -1.1120   21.9230 O   0  0  0  0  0  0  0  0  0  0  0  0
   12.5480   -0.2940   22.3360 C   0  0  0  0  0  0  0  0  0  0  0  0
   11.2130   -0.6380   22.0670 C   0  0  0  0  0  0  0  0  0  0  0  0
   10.1770    0.2130   22.4830 C   0  0  0  0  0  0  0  0  0  0  0  0
   12.8490    0.8930   23.0190 C   0  0  0  0  0  0  0  0  0  0  0  0
   11.8120    1.7480   23.4260 C   0  0  0  0  0  0  0  0  0  0  0  0
    8.8290   -0.0710   22.1800 N   0  0  0  0  0  0  0  0  0  0  0  0
   10.4780    1.4010   23.1640 C   0  0  0  0  0  0  0  0  0  0  0  0
    8.2930   -0.0100   20.9230 C   0  0  0  0  0  0  0  0  0  0  0  0
    8.9600    0.0590   19.9110 O   0  0  0  0  0  0  0  0  0  0  0  0
    6.9250    0.0370   20.9050 N   0  0  0  0  0  0  0  0  0  0  0  0
    6.1500    0.4890   19.8060 C   0  0  0  0  0  0  0  0  0  0  0  0
    6.4060    0.0810   18.4770 C   0  0  0  0  0  0  0  0  0  0  0  0
    5.1730    1.4650   20.0330 C   0  0  0  0  0  0  0  0  0  0  0  0
    5.7670    0.5960   17.4050 N   0  0  0  0  0  0  0  0  0  0  0  0
    4.5180    2.0090   18.9220 C   0  0  0  0  0  0  0  0  0  0  0  0
    4.8660    1.5770   17.6340 C   0  0  0  0  0  0  0  0  0  0  0  0
  1  2  1  0
  2  3  1  0
  3  4  2  0
  3  6  1  0
  4  5  1  0
  5  9  2  0
  5  8  1  0
  6  7  2  0
  7  9  1  0
  8 10  1  0
 10 11  2  0
 10 12  1  0
 12 13  1  0
 13 14  2  0
 13 15  1  0
 14 16  1  0
 15 17  2  0
 16 18  2  0
 17 18  1  0
M  END
