WPC2764_minimised.pdb
     RDKit          3D

 21 22  0  0  0  0  0  0  0  0999 V2000
   13.8950   -1.5630   23.7250 C   0  0  0  0  0  0  0  0  0  0  0  0
   13.0850   -0.5730   22.8520 C   0  0  0  0  0  0  0  0  0  0  0  0
   13.6510    0.8570   23.0090 C   0  0  0  0  0  0  0  0  0  0  0  0
   13.3000   -0.9880   21.4540 C   0  0  0  0  0  0  0  0  0  0  0  0
   13.5660   -1.3270   20.3830 N   0  0  0  0  0  0  0  0  0  0  0  0
   11.6110   -0.5620   23.3040 C   0  0  0  0  0  0  0  0  0  0  0  0
   10.5090   -0.7200   22.4310 C   0  0  0  0  0  0  0  0  0  0  0  0
    9.1940   -0.6360   22.9310 C   0  0  0  0  0  0  0  0  0  0  0  0
   11.3440   -0.3160   24.6670 C   0  0  0  0  0  0  0  0  0  0  0  0
   10.0400   -0.2470   25.1680 C   0  0  0  0  0  0  0  0  0  0  0  0
    8.0520   -0.7200   22.1110 N   0  0  0  0  0  0  0  0  0  0  0  0
    8.9630   -0.4160   24.2960 C   0  0  0  0  0  0  0  0  0  0  0  0
    7.8710   -0.2050   20.8590 C   0  0  0  0  0  0  0  0  0  0  0  0
    8.7450    0.1830   20.1090 O   0  0  0  0  0  0  0  0  0  0  0  0
    6.5380   -0.1390   20.5720 N   0  0  0  0  0  0  0  0  0  0  0  0
    5.9420    0.5100   19.4700 C   0  0  0  0  0  0  0  0  0  0  0  0
    6.3760    0.2850   18.1490 C   0  0  0  0  0  0  0  0  0  0  0  0
    4.9190    1.4370   19.7050 C   0  0  0  0  0  0  0  0  0  0  0  0
    5.8400    0.9120   17.0810 N   0  0  0  0  0  0  0  0  0  0  0  0
    4.3830    2.1080   18.5990 C   0  0  0  0  0  0  0  0  0  0  0  0
    4.8810    1.8350   17.3180 C   0  0  0  0  0  0  0  0  0  0  0  0
  1  2  1  0
  2  4  1  0
  2  3  1  0
  2  6  1  0
  4  5  3  0
  6  9  2  0
  6  7  1  0
  7  8  2  0
  8 11  1  0
  8 12  1  0
  9 10  1  0
 10 12  2  0
 11 13  1  0
 13 14  2  0
 13 15  1  0
 15 16  1  0
 16 17  2  0
 16 18  1  0
 17 19  1  0
 18 20  2  0
 19 21  2  0
 20 21  1  0
M  END
