WPC2857_minimised.pdb
     RDKit          3D

 21 22  0  0  1  0  0  0  0  0999 V2000
   15.8620    0.5180   19.6120 C   0  0  0  0  0  0  0  0  0  0  0  0
   14.6640   -0.3770   19.4250 C   0  0  0  0  0  0  0  0  0  0  0  0
   13.7570   -0.7490   20.3350 C   0  0  0  0  0  0  0  0  0  0  0  0
   13.7720   -0.4740   21.8150 C   0  0  2  0  0  0  0  0  0  0  0  0
   13.8660   -1.7410   22.4260 O   0  0  0  0  0  0  0  0  0  0  0  0
   12.5350    0.2350   22.3510 C   0  0  0  0  0  0  0  0  0  0  0  0
   11.2290   -0.1990   22.0370 C   0  0  0  0  0  0  0  0  0  0  0  0
   10.1130    0.4610   22.5810 C   0  0  0  0  0  0  0  0  0  0  0  0
   12.7020    1.3410   23.2060 C   0  0  0  0  0  0  0  0  0  0  0  0
   11.5860    2.0000   23.7440 C   0  0  0  0  0  0  0  0  0  0  0  0
    8.7980    0.0910   22.2280 N   0  0  0  0  0  0  0  0  0  0  0  0
   10.2930    1.5520   23.4410 C   0  0  0  0  0  0  0  0  0  0  0  0
    8.2900    0.1750   20.9610 C   0  0  0  0  0  0  0  0  0  0  0  0
    8.9720    0.3440   19.9730 O   0  0  0  0  0  0  0  0  0  0  0  0
    6.9230    0.1190   20.9050 N   0  0  0  0  0  0  0  0  0  0  0  0
    6.1530    0.5380   19.7900 C   0  0  0  0  0  0  0  0  0  0  0  0
    6.4310    0.1100   18.4730 C   0  0  0  0  0  0  0  0  0  0  0  0
    5.1570    1.5030   19.9900 C   0  0  0  0  0  0  0  0  0  0  0  0
    5.7840    0.5830   17.3850 N   0  0  0  0  0  0  0  0  0  0  0  0
    4.5020    2.0110   18.8620 C   0  0  0  0  0  0  0  0  0  0  0  0
    4.8630    1.5520   17.5870 C   0  0  0  0  0  0  0  0  0  0  0  0
  1  2  1  0
  2  3  2  0
  3  4  1  0
  4  5  1  1
  4  6  1  0
  6  9  2  0
  6  7  1  0
  7  8  2  0
  8 11  1  0
  8 12  1  0
  9 10  1  0
 10 12  2  0
 11 13  1  0
 13 14  2  0
 13 15  1  0
 15 16  1  0
 16 17  2  0
 16 18  1  0
 17 19  1  0
 18 20  2  0
 19 21  2  0
 20 21  1  0
M  END
