WPC2468_minimised.pdb
     RDKit          3D

 24 26  0  0  1  0  0  0  0  0999 V2000
   12.6910    5.0110   21.8800 N   0  0  0  0  0  0  0  0  0  0  0  0
   11.9330    5.0190   22.9900 C   0  0  2  0  0  0  0  0  0  0  0  0
   12.1800    4.3660   24.0500 N   0  0  0  0  0  0  0  0  0  0  0  0
   10.8500    4.0790   24.6560 C   0  0  2  0  0  0  0  0  0  0  0  0
   10.7130    2.5790   24.9940 C   0  0  0  0  0  0  0  0  0  0  0  0
   10.7420    1.6080   23.8280 C   0  0  0  0  0  0  0  0  0  0  0  0
   11.9580    1.1400   23.2980 C   0  0  0  0  0  0  0  0  0  0  0  0
   11.9580    0.1550   22.2960 C   0  0  0  0  0  0  0  0  0  0  0  0
   10.7400   -0.3580   21.8190 C   0  0  0  0  0  0  0  0  0  0  0  0
    9.5280    0.1210   22.3410 C   0  0  0  0  0  0  0  0  0  0  0  0
    8.2820   -0.3080   21.8490 N   0  0  0  0  0  0  0  0  0  0  0  0
    7.8580   -0.1010   20.5710 C   0  0  0  0  0  0  0  0  0  0  0  0
    8.5920    0.1370   19.6330 O   0  0  0  0  0  0  0  0  0  0  0  0
    6.4970   -0.0970   20.4640 N   0  0  0  0  0  0  0  0  0  0  0  0
    5.7990    0.5050   19.3940 C   0  0  0  0  0  0  0  0  0  0  0  0
    4.8570    1.5030   19.6740 C   0  0  0  0  0  0  0  0  0  0  0  0
    4.3030    2.1960   18.5910 C   0  0  0  0  0  0  0  0  0  0  0  0
    4.7210    1.8940   17.2880 C   0  0  0  0  0  0  0  0  0  0  0  0
    5.6010    0.9060   17.0090 N   0  0  0  0  0  0  0  0  0  0  0  0
    6.1310    0.2350   18.0510 C   0  0  0  0  0  0  0  0  0  0  0  0
    9.5320    1.0970   23.3410 C   0  0  0  0  0  0  0  0  0  0  0  0
    9.8650    4.5640   23.5920 C   0  0  0  0  0  0  0  0  0  0  0  0
    8.6630    4.4040   23.5190 O   0  0  0  0  0  0  0  0  0  0  0  0
   10.6210    5.1860   22.6710 N   0  0  0  0  0  0  0  0  0  0  0  0
  2  1  1  6
  2  3  1  0
  2 24  1  0
  3  4  1  0
  4 22  1  0
  4  5  1  6
  5  6  1  0
  6 21  1  0
  6  7  2  0
  7  8  1  0
  8  9  2  0
  9 10  1  0
 10 11  1  0
 10 21  2  0
 11 12  1  0
 12 13  2  0
 12 14  1  0
 14 15  1  0
 15 16  2  0
 15 20  1  0
 16 17  1  0
 17 18  2  0
 18 19  1  0
 19 20  2  0
 22 24  1  0
 22 23  2  0
M  END
