WPC2343_minimised.pdb
     RDKit          3D

 24 26  0  0  0  0  0  0  0  0999 V2000
   14.6480    4.6630   23.1180 N   0  0  0  0  0  0  0  0  0  0  0  0
   13.3430    4.8870   23.3210 C   0  0  0  0  0  0  0  0  0  0  0  0
   12.8420    6.0320   23.8530 N   0  0  0  0  0  0  0  0  0  0  0  0
   11.5020    5.8860   24.0250 N   0  0  0  0  0  0  0  0  0  0  0  0
   11.3310    4.6440   23.5900 C   0  0  0  0  0  0  0  0  0  0  0  0
    9.7660    3.9210   23.8430 S   0  0  0  0  0  0  0  0  0  0  0  0
   10.2850    2.3540   24.6640 C   0  0  0  0  0  0  0  0  0  0  0  0
   10.4070    1.2050   23.6900 C   0  0  0  0  0  0  0  0  0  0  0  0
   11.6560    0.7410   23.2420 C   0  0  0  0  0  0  0  0  0  0  0  0
   11.7240   -0.3210   22.3220 C   0  0  0  0  0  0  0  0  0  0  0  0
   10.5400   -0.9120   21.8490 C   0  0  0  0  0  0  0  0  0  0  0  0
    9.2980   -0.4370   22.2960 C   0  0  0  0  0  0  0  0  0  0  0  0
    8.0850   -0.8760   21.7430 N   0  0  0  0  0  0  0  0  0  0  0  0
    7.7050   -0.5270   20.4810 C   0  0  0  0  0  0  0  0  0  0  0  0
    8.4730   -0.2830   19.5710 O   0  0  0  0  0  0  0  0  0  0  0  0
    6.3500   -0.3860   20.3740 N   0  0  0  0  0  0  0  0  0  0  0  0
    5.7090    0.3290   19.3380 C   0  0  0  0  0  0  0  0  0  0  0  0
    4.7910    1.3350   19.6680 C   0  0  0  0  0  0  0  0  0  0  0  0
    4.2740    2.1120   18.6230 C   0  0  0  0  0  0  0  0  0  0  0  0
    4.7040    1.8800   17.3090 C   0  0  0  0  0  0  0  0  0  0  0  0
    5.5680    0.8920   16.9830 N   0  0  0  0  0  0  0  0  0  0  0  0
    6.0610    0.1420   17.9870 C   0  0  0  0  0  0  0  0  0  0  0  0
    9.2330    0.6070   23.2210 C   0  0  0  0  0  0  0  0  0  0  0  0
   12.4630    3.9530   23.2490 N   0  0  0  0  0  0  0  0  0  0  0  0
  1  2  1  0
  2 24  2  0
  2  3  1  0
  3  4  1  0
  4  5  2  0
  5  6  1  0
  5 24  1  0
  6  7  1  0
  7  8  1  0
  8 23  1  0
  8  9  2  0
  9 10  1  0
 10 11  2  0
 11 12  1  0
 12 13  1  0
 12 23  2  0
 13 14  1  0
 14 15  2  0
 14 16  1  0
 16 17  1  0
 17 18  2  0
 17 22  1  0
 18 19  1  0
 19 20  2  0
 20 21  1  0
 21 22  2  0
M  END
