WPC2395_minimised.pdb
     RDKit          3D

 24 26  0  0  0  0  0  0  0  0999 V2000
    8.3590   -0.2710   19.6400 O   0  0  0  0  0  0  0  0  0  0  0  0
    7.5900   -0.3730   20.5760 C   0  0  0  0  0  0  0  0  0  0  0  0
    6.2560   -0.0950   20.4750 N   0  0  0  0  0  0  0  0  0  0  0  0
    5.6400    0.5540   19.3790 C   0  0  0  0  0  0  0  0  0  0  0  0
    4.7070    1.5670   19.6310 C   0  0  0  0  0  0  0  0  0  0  0  0
    4.2080    2.2790   18.5330 C   0  0  0  0  0  0  0  0  0  0  0  0
    4.6730    1.9830   17.2440 C   0  0  0  0  0  0  0  0  0  0  0  0
    5.5380    0.9760   16.9900 N   0  0  0  0  0  0  0  0  0  0  0  0
    6.0120    0.2850   18.0450 C   0  0  0  0  0  0  0  0  0  0  0  0
    7.9590   -0.7190   21.8470 N   0  0  0  0  0  0  0  0  0  0  0  0
    9.2880   -0.6690   22.3060 C   0  0  0  0  0  0  0  0  0  0  0  0
   10.3210   -1.2980   21.5980 C   0  0  0  0  0  0  0  0  0  0  0  0
   11.6620   -1.0430   21.9230 C   0  0  0  0  0  0  0  0  0  0  0  0
   11.9610   -0.1810   22.9870 C   0  0  0  0  0  0  0  0  0  0  0  0
   10.9240    0.3700   23.7590 C   0  0  0  0  0  0  0  0  0  0  0  0
   11.2370    1.2250   24.9640 C   0  0  0  0  0  0  0  0  0  0  0  0
   10.4140    2.8680   24.8860 S   0  0  0  0  0  0  0  0  0  0  0  0
   11.6080    3.9120   24.1000 C   0  0  0  0  0  0  0  0  0  0  0  0
   11.6830    5.2520   24.5090 C   0  0  0  0  0  0  0  0  0  0  0  0
   12.6590    6.0820   23.9480 C   0  0  0  0  0  0  0  0  0  0  0  0
   13.4900    5.5330   22.9620 C   0  0  0  0  0  0  0  0  0  0  0  0
   13.3670    4.1780   22.6390 C   0  0  0  0  0  0  0  0  0  0  0  0
   12.4650    3.3700   23.2200 N   0  0  0  0  0  0  0  0  0  0  0  0
    9.5870    0.1310   23.4110 C   0  0  0  0  0  0  0  0  0  0  0  0
  1  2  2  0
  2  3  1  0
  2 10  1  0
  3  4  1  0
  4  5  2  0
  4  9  1  0
  5  6  1  0
  6  7  2  0
  7  8  1  0
  8  9  2  0
 10 11  1  0
 11 24  1  0
 11 12  2  0
 12 13  1  0
 13 14  2  0
 14 15  1  0
 15 16  1  0
 15 24  2  0
 16 17  1  0
 17 18  1  0
 18 19  2  0
 18 23  1  0
 19 20  1  0
 20 21  2  0
 21 22  1  0
 22 23  2  0
M  END
