WPC2779_minimised.pdb
     RDKit          3D

 21 22  0  0  0  0  0  0  0  0999 V2000
   16.7850    0.5610   19.5250 N   0  0  0  0  0  0  0  0  0  0  0  0
   15.3310    0.6240   19.4580 C   0  0  0  0  0  0  0  0  0  0  0  0
   14.6110   -0.5520   20.1470 C   0  0  0  0  0  0  0  0  0  0  0  0
   14.1840   -0.1290   21.8950 S   0  0  0  0  0  0  0  0  0  0  0  0
   12.6950   -1.1850   22.1410 C   0  0  0  0  0  0  0  0  0  0  0  0
   11.5330   -0.4320   22.7690 C   0  0  0  0  0  0  0  0  0  0  0  0
   10.2510   -0.5520   22.2060 C   0  0  0  0  0  0  0  0  0  0  0  0
    9.1540    0.1000   22.7910 C   0  0  0  0  0  0  0  0  0  0  0  0
   11.7090    0.3710   23.9120 C   0  0  0  0  0  0  0  0  0  0  0  0
   10.6070    1.0050   24.5070 C   0  0  0  0  0  0  0  0  0  0  0  0
    7.8680    0.0250   22.2180 N   0  0  0  0  0  0  0  0  0  0  0  0
    9.3290    0.8620   23.9530 C   0  0  0  0  0  0  0  0  0  0  0  0
    7.5630    0.2540   20.9060 C   0  0  0  0  0  0  0  0  0  0  0  0
    8.3770    0.4010   20.0160 O   0  0  0  0  0  0  0  0  0  0  0  0
    6.2150    0.3230   20.6990 N   0  0  0  0  0  0  0  0  0  0  0  0
    5.5900    0.8080   19.5280 C   0  0  0  0  0  0  0  0  0  0  0  0
    6.0220    0.4420   18.2330 C   0  0  0  0  0  0  0  0  0  0  0  0
    4.5740    1.7600   19.6630 C   0  0  0  0  0  0  0  0  0  0  0  0
    5.5000    0.9620   17.1040 N   0  0  0  0  0  0  0  0  0  0  0  0
    4.0520    2.3230   18.4930 C   0  0  0  0  0  0  0  0  0  0  0  0
    4.5570    1.9230   17.2490 C   0  0  0  0  0  0  0  0  0  0  0  0
  1  2  1  0
  2  3  1  0
  3  4  1  0
  4  5  1  0
  5  6  1  0
  6  9  2  0
  6  7  1  0
  7  8  2  0
  8 11  1  0
  8 12  1  0
  9 10  1  0
 10 12  2  0
 11 13  1  0
 13 14  2  0
 13 15  1  0
 15 16  1  0
 16 17  2  0
 16 18  1  0
 17 19  1  0
 18 20  2  0
 19 21  2  0
 20 21  1  0
M  END
