WPC2229_minimised.pdb
     RDKit          3D

 19 20  0  0  0  0  0  0  0  0999 V2000
   13.0960    5.1070   22.3460 C   0  0  0  0  0  0  0  0  0  0  0  0
   11.6860    5.1760   22.7620 N   0  0  0  0  0  0  0  0  0  0  0  0
   11.3290    4.2810   23.8710 C   0  0  0  0  0  0  0  0  0  0  0  0
   11.2280    2.8160   23.4630 C   0  0  0  0  0  0  0  0  0  0  0  0
   12.3690    1.9990   23.3440 C   0  0  0  0  0  0  0  0  0  0  0  0
   12.2480    0.6540   22.9610 C   0  0  0  0  0  0  0  0  0  0  0  0
   10.9810    0.1080   22.7010 C   0  0  0  0  0  0  0  0  0  0  0  0
    9.8400    0.9130   22.8220 C   0  0  0  0  0  0  0  0  0  0  0  0
    8.5670    0.4130   22.4780 N   0  0  0  0  0  0  0  0  0  0  0  0
    8.1170    0.3490   21.1900 C   0  0  0  0  0  0  0  0  0  0  0  0
    8.8380    0.4900   20.2250 O   0  0  0  0  0  0  0  0  0  0  0  0
    6.7620    0.1950   21.0720 N   0  0  0  0  0  0  0  0  0  0  0  0
    6.0400    0.5540   19.9070 C   0  0  0  0  0  0  0  0  0  0  0  0
    5.0280    1.5140   20.0240 C   0  0  0  0  0  0  0  0  0  0  0  0
    4.4560    2.0070   18.8460 C   0  0  0  0  0  0  0  0  0  0  0  0
    4.9140    1.5390   17.6060 C   0  0  0  0  0  0  0  0  0  0  0  0
    5.8450    0.5670   17.4810 N   0  0  0  0  0  0  0  0  0  0  0  0
    6.4090    0.1040   18.6180 C   0  0  0  0  0  0  0  0  0  0  0  0
    9.9640    2.2600   23.1940 C   0  0  0  0  0  0  0  0  0  0  0  0
  1  2  1  0
  2  3  1  0
  3  4  1  0
  4 19  2  0
  4  5  1  0
  5  6  2  0
  6  7  1  0
  7  8  2  0
  8  9  1  0
  8 19  1  0
  9 10  1  0
 10 11  2  0
 10 12  1  0
 12 13  1  0
 13 14  2  0
 13 18  1  0
 14 15  1  0
 15 16  2  0
 16 17  1  0
 17 18  2  0
M  END
