WPC2311_minimised.pdb
     RDKit          3D

 24 26  0  0  1  0  0  0  0  0999 V2000
    8.7880    1.2420   20.5020 O   0  0  0  0  0  0  0  0  0  0  0  0
    8.5550    0.1000   20.8440 C   0  0  0  0  0  0  0  0  0  0  0  0
    7.4310   -0.5710   20.4490 N   0  0  0  0  0  0  0  0  0  0  0  0
    6.4660   -0.0120   19.5760 C   0  0  0  0  0  0  0  0  0  0  0  0
    5.6250    1.0150   20.0270 C   0  0  0  0  0  0  0  0  0  0  0  0
    4.7690    1.6190   19.0950 C   0  0  0  0  0  0  0  0  0  0  0  0
    4.8020    1.2040   17.7550 C   0  0  0  0  0  0  0  0  0  0  0  0
    5.5970    0.2010   17.3200 N   0  0  0  0  0  0  0  0  0  0  0  0
    6.4180   -0.3790   18.2180 C   0  0  0  0  0  0  0  0  0  0  0  0
    9.4060   -0.6090   21.6430 N   0  0  0  0  0  0  0  0  0  0  0  0
   10.5500   -0.0370   22.2310 C   0  0  0  0  0  0  0  0  0  0  0  0
   11.8350   -0.4660   21.8730 C   0  0  0  0  0  0  0  0  0  0  0  0
   12.9580    0.1780   22.4200 C   0  0  0  0  0  0  0  0  0  0  0  0
   12.7900    1.2330   23.3330 C   0  0  0  0  0  0  0  0  0  0  0  0
   11.4980    1.6670   23.6880 C   0  0  0  0  0  0  0  0  0  0  0  0
   11.2860    2.7270   24.7540 C   0  0  0  0  0  0  0  0  0  0  0  0
   11.5460    4.1960   24.3400 C   0  0  2  0  0  0  0  0  0  0  0  0
   10.4230    4.7380   23.5190 C   0  0  0  0  0  0  0  0  0  0  0  0
    9.3070    4.9850   23.9340 O   0  0  0  0  0  0  0  0  0  0  0  0
   10.9440    4.9950   22.1420 C   0  0  0  0  0  0  0  0  0  0  0  0
   12.3610    5.0950   22.3250 O   0  0  0  0  0  0  0  0  0  0  0  0
   12.7570    4.4300   23.4460 C   0  0  0  0  0  0  0  0  0  0  0  0
   13.8960    4.4540   23.8640 O   0  0  0  0  0  0  0  0  0  0  0  0
   10.3840    1.0270   23.1280 C   0  0  0  0  0  0  0  0  0  0  0  0
  1  2  2  0
  2  3  1  0
  2 10  1  0
  3  4  1  0
  4  5  2  0
  4  9  1  0
  5  6  1  0
  6  7  2  0
  7  8  1  0
  8  9  2  0
 10 11  1  0
 11 24  1  0
 11 12  2  0
 12 13  1  0
 13 14  2  0
 14 15  1  0
 15 16  1  0
 15 24  2  0
 17 16  1  6
 17 18  1  0
 17 22  1  0
 18 19  2  0
 18 20  1  0
 20 21  1  0
 21 22  1  0
 22 23  2  0
M  END
