WPC2504_minimised.pdb
     RDKit          3D

 23 25  0  0  0  0  0  0  0  0999 V2000
    8.4570   -0.2200   19.5650 O   0  0  0  0  0  0  0  0  0  0  0  0
    7.7000   -0.4660   20.4820 C   0  0  0  0  0  0  0  0  0  0  0  0
    6.3420   -0.3500   20.3860 N   0  0  0  0  0  0  0  0  0  0  0  0
    5.6860    0.3450   19.3460 C   0  0  0  0  0  0  0  0  0  0  0  0
    4.7610    1.3450   19.6730 C   0  0  0  0  0  0  0  0  0  0  0  0
    4.2370    2.1130   18.6250 C   0  0  0  0  0  0  0  0  0  0  0  0
    4.6680    1.8790   17.3110 C   0  0  0  0  0  0  0  0  0  0  0  0
    5.5350    0.8930   16.9880 N   0  0  0  0  0  0  0  0  0  0  0  0
    6.0350    0.1520   17.9950 C   0  0  0  0  0  0  0  0  0  0  0  0
    8.1050   -0.7950   21.7410 N   0  0  0  0  0  0  0  0  0  0  0  0
    9.3630   -0.4230   22.2420 C   0  0  0  0  0  0  0  0  0  0  0  0
   10.5420   -1.0500   21.8180 C   0  0  0  0  0  0  0  0  0  0  0  0
   11.7860   -0.5650   22.2540 C   0  0  0  0  0  0  0  0  0  0  0  0
   11.8400    0.5420   23.1180 C   0  0  0  0  0  0  0  0  0  0  0  0
   10.6530    1.1720   23.5380 C   0  0  0  0  0  0  0  0  0  0  0  0
   10.6730    2.3560   24.4900 C   0  0  0  0  0  0  0  0  0  0  0  0
   11.3280    3.6020   23.9700 C   0  0  0  0  0  0  0  0  0  0  0  0
   10.8620    4.8700   24.2290 N   0  0  0  0  0  0  0  0  0  0  0  0
   11.7050    5.6660   23.6300 N   0  0  0  0  0  0  0  0  0  0  0  0
   12.7090    4.9600   22.9770 C   0  0  0  0  0  0  0  0  0  0  0  0
   13.9590    5.5550   22.0410 S   0  0  0  0  0  0  0  0  0  0  0  0
   12.4340    3.6480   23.2710 N   0  0  0  0  0  0  0  0  0  0  0  0
    9.4180    0.6790   23.0990 C   0  0  0  0  0  0  0  0  0  0  0  0
  1  2  2  0
  2 10  1  0
  2  3  1  0
  3  4  1  0
  4  5  2  0
  4  9  1  0
  5  6  1  0
  6  7  2  0
  7  8  1  0
  8  9  2  0
 10 11  1  0
 11 12  2  0
 11 23  1  0
 12 13  1  0
 13 14  2  0
 14 15  1  0
 15 16  1  0
 15 23  2  0
 16 17  1  0
 17 18  1  0
 17 22  2  0
 18 19  2  0
 19 20  1  0
 20 21  2  0
 20 22  1  0
M  END
