WPC2548_minimised.pdb
     RDKit          3D

 24 25  0  0  0  0  0  0  0  0999 V2000
    5.9880    6.0070   27.2210 O   0  0  0  0  0  0  0  0  0  0  0  0
    8.1270    5.0810   24.6680 C   0  0  0  0  0  0  0  0  0  0  0  0
    8.3670    5.6750   23.4160 O   0  0  0  0  0  0  0  0  0  0  0  0
    9.6680    4.5940   24.6850 C   0  0  0  0  0  0  0  0  0  0  0  0
    9.9860    3.3980   23.7420 C   0  0  0  0  0  0  0  0  0  0  0  0
   11.4360    2.9310   23.9050 C   0  0  0  0  0  0  0  0  0  0  0  0
   12.3540    3.7070   23.7210 O   0  0  0  0  0  0  0  0  0  0  0  0
   11.6770    1.5110   24.4120 C   0  0  0  0  0  0  0  0  0  0  0  0
   11.3310    0.4370   23.4090 C   0  0  0  0  0  0  0  0  0  0  0  0
   12.3380   -0.1470   22.6200 C   0  0  0  0  0  0  0  0  0  0  0  0
   12.0180   -1.1830   21.7300 C   0  0  0  0  0  0  0  0  0  0  0  0
   10.6790   -1.5770   21.5830 C   0  0  0  0  0  0  0  0  0  0  0  0
    9.6710   -0.9450   22.3150 C   0  0  0  0  0  0  0  0  0  0  0  0
    8.3210   -1.1070   21.9570 N   0  0  0  0  0  0  0  0  0  0  0  0
    7.8260   -0.5920   20.7890 C   0  0  0  0  0  0  0  0  0  0  0  0
    8.5330   -0.1660   19.8950 O   0  0  0  0  0  0  0  0  0  0  0  0
    6.4620   -0.5380   20.7220 N   0  0  0  0  0  0  0  0  0  0  0  0
    5.7620    0.1320   19.6880 C   0  0  0  0  0  0  0  0  0  0  0  0
    4.8410    1.1360   20.0150 C   0  0  0  0  0  0  0  0  0  0  0  0
    4.2890    1.8800   18.9620 C   0  0  0  0  0  0  0  0  0  0  0  0
    4.6760    1.6100   17.6400 C   0  0  0  0  0  0  0  0  0  0  0  0
    5.5360    0.6180   17.3160 N   0  0  0  0  0  0  0  0  0  0  0  0
    6.0750   -0.0890   18.3290 C   0  0  0  0  0  0  0  0  0  0  0  0
   10.0010    0.0150   23.2700 C   0  0  0  0  0  0  0  0  0  0  0  0
  1  2  2  0
  2  3  1  0
  2  4  1  0
  4  5  1  0
  5  6  1  0
  6  7  2  0
  6  8  1  0
  8  9  1  0
  9 24  2  0
  9 10  1  0
 10 11  2  0
 11 12  1  0
 12 13  2  0
 13 14  1  0
 13 24  1  0
 14 15  1  0
 15 16  2  0
 15 17  1  0
 17 18  1  0
 18 19  2  0
 18 23  1  0
 19 20  1  0
 20 21  2  0
 21 22  1  0
 22 23  2  0
M  END
