WPC2682_minimised.pdb
     RDKit          3D

 18 19  0  0  0  0  0  0  0  0999 V2000
   13.5010   -1.1140   21.1320 C   0  0  0  0  0  0  0  0  0  0  0  0
   13.4880   -0.4950   22.2640 N   0  0  0  0  0  0  0  0  0  0  0  0
   12.4120    0.3330   22.6400 C   0  0  0  0  0  0  0  0  0  0  0  0
   11.0810   -0.0890   22.4780 C   0  0  0  0  0  0  0  0  0  0  0  0
   10.0230    0.7780   22.7900 C   0  0  0  0  0  0  0  0  0  0  0  0
   12.6750    1.6140   23.1430 C   0  0  0  0  0  0  0  0  0  0  0  0
   11.6190    2.4820   23.4660 C   0  0  0  0  0  0  0  0  0  0  0  0
    8.6940    0.4180   22.4840 N   0  0  0  0  0  0  0  0  0  0  0  0
   10.2910    2.0610   23.2900 C   0  0  0  0  0  0  0  0  0  0  0  0
    8.2100    0.3650   21.2050 C   0  0  0  0  0  0  0  0  0  0  0  0
    8.9190    0.4330   20.2230 O   0  0  0  0  0  0  0  0  0  0  0  0
    6.8460    0.2900   21.1140 N   0  0  0  0  0  0  0  0  0  0  0  0
    6.1070    0.6270   19.9510 C   0  0  0  0  0  0  0  0  0  0  0  0
    6.4490    0.1490   18.6640 C   0  0  0  0  0  0  0  0  0  0  0  0
    5.0840    1.5750   20.0670 C   0  0  0  0  0  0  0  0  0  0  0  0
    5.8530    0.5750   17.5290 N   0  0  0  0  0  0  0  0  0  0  0  0
    4.4780    2.0310   18.8910 C   0  0  0  0  0  0  0  0  0  0  0  0
    4.9130    1.5390   17.6530 C   0  0  0  0  0  0  0  0  0  0  0  0
  1  2  2  0
  2  3  1  0
  3  4  2  0
  3  6  1  0
  4  5  1  0
  5  9  2  0
  5  8  1  0
  6  7  2  0
  7  9  1  0
  8 10  1  0
 10 11  2  0
 10 12  1  0
 12 13  1  0
 13 14  2  0
 13 15  1  0
 14 16  1  0
 15 17  2  0
 16 18  2  0
 17 18  1  0
M  END
