WPC2684_minimised.pdb
     RDKit          3D

 21 22  0  0  0  0  0  0  0  0999 V2000
   15.7610    2.1370   19.6990 C   0  0  0  0  0  0  0  0  0  0  0  0
   15.4620    0.6650   20.0220 C   0  0  0  0  0  0  0  0  0  0  0  0
   15.0460   -0.0990   18.7620 C   0  0  0  0  0  0  0  0  0  0  0  0
   14.5000    0.5930   21.1420 N   0  0  0  0  0  0  0  0  0  0  0  0
   13.8060   -0.6630   21.4940 C   0  0  0  0  0  0  0  0  0  0  0  0
   12.5770   -0.3700   22.3620 C   0  0  0  0  0  0  0  0  0  0  0  0
   11.2770   -0.7260   21.9370 C   0  0  0  0  0  0  0  0  0  0  0  0
   10.1450   -0.3810   22.7000 C   0  0  0  0  0  0  0  0  0  0  0  0
   12.7170    0.3420   23.5690 C   0  0  0  0  0  0  0  0  0  0  0  0
   11.5840    0.6670   24.3370 C   0  0  0  0  0  0  0  0  0  0  0  0
    8.8310   -0.6410   22.2450 N   0  0  0  0  0  0  0  0  0  0  0  0
   10.3050    0.2990   23.9100 C   0  0  0  0  0  0  0  0  0  0  0  0
    8.2140    0.0260   21.2190 C   0  0  0  0  0  0  0  0  0  0  0  0
    8.7670    0.8470   20.5210 O   0  0  0  0  0  0  0  0  0  0  0  0
    6.9040   -0.3080   21.0090 N   0  0  0  0  0  0  0  0  0  0  0  0
    6.1310    0.2190   19.9410 C   0  0  0  0  0  0  0  0  0  0  0  0
    6.4410   -0.1000   18.6010 C   0  0  0  0  0  0  0  0  0  0  0  0
    5.1460    1.1820   20.1930 C   0  0  0  0  0  0  0  0  0  0  0  0
    5.8160    0.4480   17.5370 N   0  0  0  0  0  0  0  0  0  0  0  0
    4.5190    1.7810   19.0900 C   0  0  0  0  0  0  0  0  0  0  0  0
    4.8860    1.3960   17.7900 C   0  0  0  0  0  0  0  0  0  0  0  0
  1  2  1  0
  2  3  1  0
  2  4  1  0
  4  5  1  0
  5  6  1  0
  6  9  2  0
  6  7  1  0
  7  8  2  0
  8 11  1  0
  8 12  1  0
  9 10  1  0
 10 12  2  0
 11 13  1  0
 13 14  2  0
 13 15  1  0
 15 16  1  0
 16 17  2  0
 16 18  1  0
 17 19  1  0
 18 20  2  0
 19 21  2  0
 20 21  1  0
M  END
