WPC2072_minimised.pdb
     RDKit          3D

 22 23  0  0  0  0  0  0  0  0999 V2000
   13.9810    5.3690   22.6320 N   0  0  0  0  0  0  0  0  0  0  0  0
   12.9060    5.1630   23.4180 C   0  0  0  0  0  0  0  0  0  0  0  0
   12.8520    5.5280   24.5730 O   0  0  0  0  0  0  0  0  0  0  0  0
   11.9450    4.5290   22.7150 O   0  0  0  0  0  0  0  0  0  0  0  0
   10.7010    4.2120   23.3730 C   0  0  0  0  0  0  0  0  0  0  0  0
   10.8890    2.9750   24.2760 C   0  0  0  0  0  0  0  0  0  0  0  0
   10.9030    1.6780   23.4870 C   0  0  0  0  0  0  0  0  0  0  0  0
   12.1070    1.0870   23.0610 C   0  0  0  0  0  0  0  0  0  0  0  0
   12.0800   -0.0850   22.2820 C   0  0  0  0  0  0  0  0  0  0  0  0
   10.8490   -0.6640   21.9260 C   0  0  0  0  0  0  0  0  0  0  0  0
    9.6520   -0.0750   22.3590 C   0  0  0  0  0  0  0  0  0  0  0  0
    8.3950   -0.5470   21.9340 N   0  0  0  0  0  0  0  0  0  0  0  0
    7.9030   -0.2930   20.6850 C   0  0  0  0  0  0  0  0  0  0  0  0
    8.5940   -0.0000   19.7320 O   0  0  0  0  0  0  0  0  0  0  0  0
    6.5370   -0.3080   20.6230 N   0  0  0  0  0  0  0  0  0  0  0  0
    5.8090    0.2960   19.5710 C   0  0  0  0  0  0  0  0  0  0  0  0
    4.8820    1.3010   19.8750 C   0  0  0  0  0  0  0  0  0  0  0  0
    4.3030    1.9990   18.8060 C   0  0  0  0  0  0  0  0  0  0  0  0
    4.6750    1.6840   17.4910 C   0  0  0  0  0  0  0  0  0  0  0  0
    5.5420    0.6910   17.1890 N   0  0  0  0  0  0  0  0  0  0  0  0
    6.1030    0.0250   18.2180 C   0  0  0  0  0  0  0  0  0  0  0  0
    9.6810    1.0840   23.1420 C   0  0  0  0  0  0  0  0  0  0  0  0
  1  2  1  0
  2  3  2  0
  2  4  1  0
  4  5  1  0
  5  6  1  0
  6  7  1  0
  7 22  2  0
  7  8  1  0
  8  9  2  0
  9 10  1  0
 10 11  2  0
 11 12  1  0
 11 22  1  0
 12 13  1  0
 13 14  2  0
 13 15  1  0
 15 16  1  0
 16 17  2  0
 16 21  1  0
 17 18  1  0
 18 19  2  0
 19 20  1  0
 20 21  2  0
M  END
