WPC2440_minimised.pdb
     RDKit          3D

 21 22  0  0  0  0  0  0  0  0999 V2000
   13.1190    5.3020   22.8180 C   0  0  0  0  0  0  0  0  0  0  0  0
   11.7980    5.6790   23.5320 C   0  0  0  0  0  0  0  0  0  0  0  0
   11.2590    4.5690   24.4410 C   0  0  0  0  0  0  0  0  0  0  0  0
   11.0290    3.2500   23.6900 C   0  0  0  0  0  0  0  0  0  0  0  0
   10.6090    1.9330   24.8860 S   0  0  0  0  0  0  0  0  0  0  0  0
   10.5010    0.5740   23.7670 C   0  0  0  0  0  0  0  0  0  0  0  0
   11.6550   -0.0130   23.2260 C   0  0  0  0  0  0  0  0  0  0  0  0
   11.5350   -1.0280   22.2610 C   0  0  0  0  0  0  0  0  0  0  0  0
   10.2610   -1.4170   21.8180 C   0  0  0  0  0  0  0  0  0  0  0  0
    9.1170   -0.7940   22.3370 C   0  0  0  0  0  0  0  0  0  0  0  0
    7.8530   -0.9940   21.7620 N   0  0  0  0  0  0  0  0  0  0  0  0
    7.5390   -0.5080   20.5270 C   0  0  0  0  0  0  0  0  0  0  0  0
    8.3530   -0.1890   19.6810 O   0  0  0  0  0  0  0  0  0  0  0  0
    6.1940   -0.3320   20.3650 N   0  0  0  0  0  0  0  0  0  0  0  0
    5.6090    0.4030   19.3110 C   0  0  0  0  0  0  0  0  0  0  0  0
    4.6730    1.4020   19.6040 C   0  0  0  0  0  0  0  0  0  0  0  0
    4.2120    2.1910   18.5410 C   0  0  0  0  0  0  0  0  0  0  0  0
    4.7130    1.9760   17.2490 C   0  0  0  0  0  0  0  0  0  0  0  0
    5.5950    0.9930   16.9580 N   0  0  0  0  0  0  0  0  0  0  0  0
    6.0340    0.2320   17.9780 C   0  0  0  0  0  0  0  0  0  0  0  0
    9.2360    0.1830   23.3270 C   0  0  0  0  0  0  0  0  0  0  0  0
  1  2  1  0
  2  3  1  0
  3  4  1  0
  4  5  1  0
  5  6  1  0
  6 21  2  0
  6  7  1  0
  7  8  2  0
  8  9  1  0
  9 10  2  0
 10 11  1  0
 10 21  1  0
 11 12  1  0
 12 13  2  0
 12 14  1  0
 14 15  1  0
 15 16  2  0
 15 20  1  0
 16 17  1  0
 17 18  2  0
 18 19  1  0
 19 20  2  0
M  END
