WPC2708_minimised.pdb
     RDKit          3D

 23 24  0  0  0  0  0  0  0  0999 V2000
   16.2770    1.2040   16.6310 N   0  0  0  0  0  0  0  0  0  0  0  0
   15.3600    1.1400   17.7680 C   0  0  0  0  0  0  0  0  0  0  0  0
   16.0470    0.7470   19.1020 C   0  0  0  0  0  0  0  0  0  0  0  0
   15.1040    0.5190   20.2210 N   0  0  0  0  0  0  0  0  0  0  0  0
   14.2650   -0.6870   20.1460 C   0  0  0  0  0  0  0  0  0  0  0  0
   13.0170   -0.6130   21.0430 C   0  0  0  0  0  0  0  0  0  0  0  0
   13.3240    0.0260   22.7310 S   0  0  0  0  0  0  0  0  0  0  0  0
   11.6900    0.5650   23.2140 C   0  0  0  0  0  0  0  0  0  0  0  0
   10.5170   -0.0100   22.6870 C   0  0  0  0  0  0  0  0  0  0  0  0
    9.2620    0.5050   23.0460 C   0  0  0  0  0  0  0  0  0  0  0  0
   11.5860    1.6450   24.0980 C   0  0  0  0  0  0  0  0  0  0  0  0
   10.3310    2.1340   24.4910 C   0  0  0  0  0  0  0  0  0  0  0  0
    8.0800    0.0410   22.4400 N   0  0  0  0  0  0  0  0  0  0  0  0
    9.1670    1.5600   23.9620 C   0  0  0  0  0  0  0  0  0  0  0  0
    7.7790    0.2130   21.1180 C   0  0  0  0  0  0  0  0  0  0  0  0
    8.5820    0.5110   20.2550 O   0  0  0  0  0  0  0  0  0  0  0  0
    6.4420    0.0770   20.8700 N   0  0  0  0  0  0  0  0  0  0  0  0
    5.7920    0.5510   19.7080 C   0  0  0  0  0  0  0  0  0  0  0  0
    6.2030    0.1780   18.4090 C   0  0  0  0  0  0  0  0  0  0  0  0
    4.7820    1.5100   19.8540 C   0  0  0  0  0  0  0  0  0  0  0  0
    5.6580    0.6910   17.2850 N   0  0  0  0  0  0  0  0  0  0  0  0
    4.2400    2.0660   18.6900 C   0  0  0  0  0  0  0  0  0  0  0  0
    4.7160    1.6500   17.4390 C   0  0  0  0  0  0  0  0  0  0  0  0
  1  2  1  0
  2  3  1  0
  3  4  1  0
  4  5  1  0
  5  6  1  0
  6  7  1  0
  7  8  1  0
  8 11  2  0
  8  9  1  0
  9 10  2  0
 10 13  1  0
 10 14  1  0
 11 12  1  0
 12 14  2  0
 13 15  1  0
 15 16  2  0
 15 17  1  0
 17 18  1  0
 18 19  2  0
 18 20  1  0
 19 21  1  0
 20 22  2  0
 21 23  2  0
 22 23  1  0
M  END
