WPC2804_minimised.pdb
     RDKit          3D

 17 18  0  0  0  0  0  0  0  0999 V2000
   13.5940   -1.1910   21.4030 I   0  0  0  0  0  0  0  0  0  0  0  0
   12.0410   -0.0840   22.3300 C   0  0  0  0  0  0  0  0  0  0  0  0
   10.7120   -0.4060   22.0350 C   0  0  0  0  0  0  0  0  0  0  0  0
    9.6680    0.3280   22.6200 C   0  0  0  0  0  0  0  0  0  0  0  0
   12.3420    0.9740   23.2010 C   0  0  0  0  0  0  0  0  0  0  0  0
   11.2970    1.7040   23.7920 C   0  0  0  0  0  0  0  0  0  0  0  0
    8.3300    0.0880   22.2440 N   0  0  0  0  0  0  0  0  0  0  0  0
    9.9610    1.3740   23.5090 C   0  0  0  0  0  0  0  0  0  0  0  0
    7.8760    0.1720   20.9570 C   0  0  0  0  0  0  0  0  0  0  0  0
    8.6080    0.2980   19.9950 O   0  0  0  0  0  0  0  0  0  0  0  0
    6.5130    0.1570   20.8470 N   0  0  0  0  0  0  0  0  0  0  0  0
    5.8070    0.6040   19.7050 C   0  0  0  0  0  0  0  0  0  0  0  0
    6.1660    0.2110   18.3960 C   0  0  0  0  0  0  0  0  0  0  0  0
    4.8150    1.5770   19.8720 C   0  0  0  0  0  0  0  0  0  0  0  0
    5.6180    0.7460   17.2840 N   0  0  0  0  0  0  0  0  0  0  0  0
    4.2550    2.1410   18.7200 C   0  0  0  0  0  0  0  0  0  0  0  0
    4.7070    1.7290   17.4590 C   0  0  0  0  0  0  0  0  0  0  0  0
  1  2  1  0
  2  3  2  0
  2  5  1  0
  3  4  1  0
  4  8  2  0
  4  7  1  0
  5  6  2  0
  6  8  1  0
  7  9  1  0
  9 10  2  0
  9 11  1  0
 11 12  1  0
 12 13  2  0
 12 14  1  0
 13 15  1  0
 14 16  2  0
 15 17  2  0
 16 17  1  0
M  END
