WPC2916_minimised.pdb
     RDKit          3D

 21 22  0  0  1  0  0  0  0  0999 V2000
   15.4320    0.3830   20.0320 C   0  0  0  0  0  0  0  0  0  0  0  0
   14.4790   -0.4970   20.3480 C   0  0  0  0  0  0  0  0  0  0  0  0
   13.1720   -0.1170   21.0060 C   0  0  0  0  0  0  0  0  0  0  0  0
   13.0240   -0.6660   22.4320 C   0  0  2  0  0  0  0  0  0  0  0  0
   13.0880   -2.0830   22.4140 O   0  0  0  0  0  0  0  0  0  0  0  0
   11.7090   -0.2340   23.0640 C   0  0  0  0  0  0  0  0  0  0  0  0
   10.4800   -0.4870   22.4240 C   0  0  0  0  0  0  0  0  0  0  0  0
    9.2800   -0.0340   22.9910 C   0  0  0  0  0  0  0  0  0  0  0  0
   11.7140    0.4570   24.2870 C   0  0  0  0  0  0  0  0  0  0  0  0
   10.5080    0.8620   24.8790 C   0  0  0  0  0  0  0  0  0  0  0  0
    8.0510   -0.1770   22.3180 N   0  0  0  0  0  0  0  0  0  0  0  0
    9.2910    0.6190   24.2300 C   0  0  0  0  0  0  0  0  0  0  0  0
    7.8060    0.1380   21.0100 C   0  0  0  0  0  0  0  0  0  0  0  0
    8.6490    0.4030   20.1740 O   0  0  0  0  0  0  0  0  0  0  0  0
    6.4650    0.1620   20.7560 N   0  0  0  0  0  0  0  0  0  0  0  0
    5.8460    0.6820   19.5990 C   0  0  0  0  0  0  0  0  0  0  0  0
    6.2600    0.3260   18.2970 C   0  0  0  0  0  0  0  0  0  0  0  0
    4.8340    1.6360   19.7570 C   0  0  0  0  0  0  0  0  0  0  0  0
    5.7150    0.8530   17.1800 N   0  0  0  0  0  0  0  0  0  0  0  0
    4.2900    2.2050   18.6000 C   0  0  0  0  0  0  0  0  0  0  0  0
    4.7700    1.8080   17.3450 C   0  0  0  0  0  0  0  0  0  0  0  0
  1  2  2  0
  2  3  1  0
  3  4  1  0
  4  5  1  6
  4  6  1  0
  6  9  2  0
  6  7  1  0
  7  8  2  0
  8 11  1  0
  8 12  1  0
  9 10  1  0
 10 12  2  0
 11 13  1  0
 13 14  2  0
 13 15  1  0
 15 16  1  0
 16 17  2  0
 16 18  1  0
 17 19  1  0
 18 20  2  0
 19 21  2  0
 20 21  1  0
M  END
