WPC2303_minimised.pdb
     RDKit          3D

 24 25  0  0  0  0  0  0  0  0999 V2000
   13.9710    3.1810   22.6640 C   0  0  0  0  0  0  0  0  0  0  0  0
   13.6290    4.5990   23.1710 C   0  0  0  0  0  0  0  0  0  0  0  0
   13.9300    5.6260   22.0600 C   0  0  0  0  0  0  0  0  0  0  0  0
   12.1880    4.7050   23.6990 C   0  0  0  0  0  0  0  0  0  0  0  0
   11.5760    5.7540   23.8270 O   0  0  0  0  0  0  0  0  0  0  0  0
   11.7770    3.5170   24.2250 O   0  0  0  0  0  0  0  0  0  0  0  0
   10.4300    3.3810   24.6900 C   0  0  0  0  0  0  0  0  0  0  0  0
   10.2300    1.9230   25.1530 C   0  0  0  0  0  0  0  0  0  0  0  0
   10.2960    0.9190   24.0190 C   0  0  0  0  0  0  0  0  0  0  0  0
   11.5280    0.4220   23.5580 C   0  0  0  0  0  0  0  0  0  0  0  0
   11.5690   -0.4950   22.4940 C   0  0  0  0  0  0  0  0  0  0  0  0
   10.3720   -0.9180   21.8930 C   0  0  0  0  0  0  0  0  0  0  0  0
    9.1460   -0.4250   22.3620 C   0  0  0  0  0  0  0  0  0  0  0  0
    7.9310   -0.7340   21.7340 N   0  0  0  0  0  0  0  0  0  0  0  0
    7.6380   -0.3750   20.4530 C   0  0  0  0  0  0  0  0  0  0  0  0
    8.4630   -0.1380   19.5930 O   0  0  0  0  0  0  0  0  0  0  0  0
    6.2920   -0.2290   20.2760 N   0  0  0  0  0  0  0  0  0  0  0  0
    5.6890    0.4760   19.2130 C   0  0  0  0  0  0  0  0  0  0  0  0
    4.7240    1.4490   19.5020 C   0  0  0  0  0  0  0  0  0  0  0  0
    4.2340    2.2140   18.4360 C   0  0  0  0  0  0  0  0  0  0  0  0
    4.7380    2.0050   17.1450 C   0  0  0  0  0  0  0  0  0  0  0  0
    5.6420    1.0420   16.8560 N   0  0  0  0  0  0  0  0  0  0  0  0
    6.1110    0.3040   17.8800 C   0  0  0  0  0  0  0  0  0  0  0  0
    9.1070    0.4840   23.4230 C   0  0  0  0  0  0  0  0  0  0  0  0
  1  2  1  0
  2  3  1  0
  2  4  1  0
  4  5  2  0
  4  6  1  0
  6  7  1  0
  7  8  1  0
  8  9  1  0
  9 24  2  0
  9 10  1  0
 10 11  2  0
 11 12  1  0
 12 13  2  0
 13 14  1  0
 13 24  1  0
 14 15  1  0
 15 16  2  0
 15 17  1  0
 17 18  1  0
 18 19  2  0
 18 23  1  0
 19 20  1  0
 20 21  2  0
 21 22  1  0
 22 23  2  0
M  END
