WPC2845_minimised.pdb
     RDKit          3D

 21 22  0  0  0  0  0  0  0  0999 V2000
   16.4410    1.3740   19.1520 O   0  0  0  0  0  0  0  0  0  0  0  0
   15.8140    1.6080   20.1630 C   0  0  0  0  0  0  0  0  0  0  0  0
   14.9050    0.6930   20.6140 N   0  0  0  0  0  0  0  0  0  0  0  0
   13.9640    0.9350   21.7070 C   0  0  0  0  0  0  0  0  0  0  0  0
   13.1820   -0.3540   22.0020 C   0  0  0  0  0  0  0  0  0  0  0  0
   11.9160   -0.1090   22.8060 C   0  0  0  0  0  0  0  0  0  0  0  0
   10.6650   -0.2150   22.1750 C   0  0  0  0  0  0  0  0  0  0  0  0
    9.4780   -0.0070   22.8970 C   0  0  0  0  0  0  0  0  0  0  0  0
   11.9710    0.2030   24.1750 C   0  0  0  0  0  0  0  0  0  0  0  0
   10.7850    0.3580   24.9120 C   0  0  0  0  0  0  0  0  0  0  0  0
    8.2060   -0.0590   22.2850 N   0  0  0  0  0  0  0  0  0  0  0  0
    9.5420    0.2600   24.2720 C   0  0  0  0  0  0  0  0  0  0  0  0
    7.8770    0.2800   21.0000 C   0  0  0  0  0  0  0  0  0  0  0  0
    8.6630    0.5750   20.1210 O   0  0  0  0  0  0  0  0  0  0  0  0
    6.5240    0.2670   20.8040 N   0  0  0  0  0  0  0  0  0  0  0  0
    5.8570    0.7430   19.6530 C   0  0  0  0  0  0  0  0  0  0  0  0
    6.2520    0.3720   18.3490 C   0  0  0  0  0  0  0  0  0  0  0  0
    4.8270    1.6780   19.8120 C   0  0  0  0  0  0  0  0  0  0  0  0
    5.6750    0.8620   17.2320 N   0  0  0  0  0  0  0  0  0  0  0  0
    4.2560    2.2180   18.6550 C   0  0  0  0  0  0  0  0  0  0  0  0
    4.7200    1.8060   17.3970 C   0  0  0  0  0  0  0  0  0  0  0  0
  1  2  2  0
  2  3  1  0
  3  4  1  0
  4  5  1  0
  5  6  1  0
  6  9  2  0
  6  7  1  0
  7  8  2  0
  8 11  1  0
  8 12  1  0
  9 10  1  0
 10 12  2  0
 11 13  1  0
 13 14  2  0
 13 15  1  0
 15 16  1  0
 16 17  2  0
 16 18  1  0
 17 19  1  0
 18 20  2  0
 19 21  2  0
 20 21  1  0
M  END
