WPC2037_minimised.pdb
     RDKit          3D

 22 23  0  0  1  0  0  0  0  0999 V2000
    8.6760    5.6060   22.5490 C   0  0  0  0  0  0  0  0  0  0  0  0
   10.0040    5.3860   23.2770 C   0  0  0  0  0  0  0  0  0  0  0  0
   10.3550    3.9670   23.2410 N   0  0  0  0  0  0  0  0  0  0  0  0
   11.6440    3.6290   23.8550 C   0  0  2  0  0  0  0  0  0  0  0  0
   12.8050    4.0220   22.9220 C   0  0  0  0  0  0  0  0  0  0  0  0
   11.6890    2.1420   24.2900 C   0  0  0  0  0  0  0  0  0  0  0  0
   11.3450    1.0830   23.2610 C   0  0  0  0  0  0  0  0  0  0  0  0
   12.3530    0.2900   22.6810 C   0  0  0  0  0  0  0  0  0  0  0  0
   12.0120   -0.7890   21.8500 C   0  0  0  0  0  0  0  0  0  0  0  0
   10.6600   -1.0700   21.5970 C   0  0  0  0  0  0  0  0  0  0  0  0
    9.6580   -0.2630   22.1530 C   0  0  0  0  0  0  0  0  0  0  0  0
    8.3060   -0.4520   21.8160 N   0  0  0  0  0  0  0  0  0  0  0  0
    7.8150   -0.2270   20.5640 C   0  0  0  0  0  0  0  0  0  0  0  0
    8.5150   -0.0920   19.5800 O   0  0  0  0  0  0  0  0  0  0  0  0
    6.4540   -0.0940   20.5300 N   0  0  0  0  0  0  0  0  0  0  0  0
    5.7440    0.4980   19.4590 C   0  0  0  0  0  0  0  0  0  0  0  0
    4.8090    1.5010   19.7410 C   0  0  0  0  0  0  0  0  0  0  0  0
    4.2470    2.1900   18.6590 C   0  0  0  0  0  0  0  0  0  0  0  0
    4.6540    1.8800   17.3530 C   0  0  0  0  0  0  0  0  0  0  0  0
    5.5170    0.8790   17.0710 N   0  0  0  0  0  0  0  0  0  0  0  0
    6.0510    0.2100   18.1120 C   0  0  0  0  0  0  0  0  0  0  0  0
    9.9990    0.8010   22.9920 C   0  0  0  0  0  0  0  0  0  0  0  0
  1  2  1  0
  2  3  1  0
  3  4  1  0
  4  5  1  6
  4  6  1  0
  6  7  1  0
  7 22  2  0
  7  8  1  0
  8  9  2  0
  9 10  1  0
 10 11  2  0
 11 12  1  0
 11 22  1  0
 12 13  1  0
 13 14  2  0
 13 15  1  0
 15 16  1  0
 16 17  2  0
 16 21  1  0
 17 18  1  0
 18 19  2  0
 19 20  1  0
 20 21  2  0
M  END
