WPC2560_minimised.pdb
     RDKit          3D

 24 26  0  0  1  0  0  0  0  0999 V2000
    8.5140    0.1200   19.7570 O   0  0  0  0  0  0  0  0  0  0  0  0
    7.8080   -0.1300   20.7130 C   0  0  0  0  0  0  0  0  0  0  0  0
    6.4450   -0.0470   20.6560 N   0  0  0  0  0  0  0  0  0  0  0  0
    5.7360    0.5160   19.5700 C   0  0  0  0  0  0  0  0  0  0  0  0
    4.7930    1.5210   19.8180 C   0  0  0  0  0  0  0  0  0  0  0  0
    4.2260    2.1660   18.7120 C   0  0  0  0  0  0  0  0  0  0  0  0
    4.6300    1.8080   17.4170 C   0  0  0  0  0  0  0  0  0  0  0  0
    5.5040    0.8070   17.1680 N   0  0  0  0  0  0  0  0  0  0  0  0
    6.0500    0.1870   18.2330 C   0  0  0  0  0  0  0  0  0  0  0  0
    8.2870   -0.4710   21.9460 N   0  0  0  0  0  0  0  0  0  0  0  0
    9.6460   -0.3710   22.2990 C   0  0  0  0  0  0  0  0  0  0  0  0
   10.6190   -1.1070   21.6110 C   0  0  0  0  0  0  0  0  0  0  0  0
   11.9820   -0.8780   21.8510 C   0  0  0  0  0  0  0  0  0  0  0  0
   12.3690    0.0690   22.8100 C   0  0  0  0  0  0  0  0  0  0  0  0
   11.3920    0.7620   23.5450 C   0  0  0  0  0  0  0  0  0  0  0  0
   11.7830    1.6720   24.6860 C   0  0  0  0  0  0  0  0  0  0  0  0
   11.8370    3.1840   24.3670 C   0  0  1  0  0  0  0  0  0  0  0  0
   13.0030    3.6290   23.5730 N   0  0  0  0  0  0  0  0  0  0  0  0
   12.6530    4.4540   22.5390 C   0  0  0  0  0  0  0  0  0  0  0  0
   13.6710    5.3160   21.5510 S   0  0  0  0  0  0  0  0  0  0  0  0
   11.2970    4.4730   22.5600 N   0  0  0  0  0  0  0  0  0  0  0  0
   10.6950    3.7520   23.5330 C   0  0  0  0  0  0  0  0  0  0  0  0
    9.4990    3.6510   23.7150 O   0  0  0  0  0  0  0  0  0  0  0  0
   10.0310    0.5420   23.2830 C   0  0  0  0  0  0  0  0  0  0  0  0
  1  2  2  0
  2  3  1  0
  2 10  1  0
  3  4  1  0
  4  5  2  0
  4  9  1  0
  5  6  1  0
  6  7  2  0
  7  8  1  0
  8  9  2  0
 10 11  1  0
 11 24  1  0
 11 12  2  0
 12 13  1  0
 13 14  2  0
 14 15  1  0
 15 16  1  0
 15 24  2  0
 17 16  1  6
 17 18  1  0
 17 22  1  0
 18 19  1  0
 19 20  2  0
 19 21  1  0
 21 22  1  0
 22 23  2  0
M  END
