WPC2824_minimised.pdb
     RDKit          3D

 20 21  0  0  1  0  0  0  0  0999 V2000
   14.6180   -0.1070   19.9530 C   0  0  0  0  0  0  0  0  0  0  0  0
   13.6980    0.3930   21.0840 C   0  0  0  0  0  0  0  0  0  0  0  0
   13.0310   -0.7680   21.8250 C   0  0  1  0  0  0  0  0  0  0  0  0
   14.0540   -1.4360   22.6240 N   0  0  0  0  0  0  0  0  0  0  0  0
   11.8170   -0.3120   22.6290 C   0  0  0  0  0  0  0  0  0  0  0  0
   10.5430   -0.4430   22.0500 C   0  0  0  0  0  0  0  0  0  0  0  0
    9.3920   -0.0230   22.7350 C   0  0  0  0  0  0  0  0  0  0  0  0
   11.9260    0.2540   23.9150 C   0  0  0  0  0  0  0  0  0  0  0  0
   10.7690    0.6310   24.6200 C   0  0  0  0  0  0  0  0  0  0  0  0
    8.1130   -0.0910   22.1420 N   0  0  0  0  0  0  0  0  0  0  0  0
    9.5060    0.4960   24.0300 C   0  0  0  0  0  0  0  0  0  0  0  0
    7.7970    0.2080   20.8440 C   0  0  0  0  0  0  0  0  0  0  0  0
    8.5990    0.4420   19.9610 O   0  0  0  0  0  0  0  0  0  0  0  0
    6.4450    0.2400   20.6500 N   0  0  0  0  0  0  0  0  0  0  0  0
    5.7850    0.7450   19.5070 C   0  0  0  0  0  0  0  0  0  0  0  0
    6.1840    0.4120   18.1940 C   0  0  0  0  0  0  0  0  0  0  0  0
    4.7530    1.6730   19.6900 C   0  0  0  0  0  0  0  0  0  0  0  0
    5.6100    0.9350   17.0910 N   0  0  0  0  0  0  0  0  0  0  0  0
    4.1830    2.2450   18.5480 C   0  0  0  0  0  0  0  0  0  0  0  0
    4.6520    1.8730   17.2810 C   0  0  0  0  0  0  0  0  0  0  0  0
  1  2  1  0
  2  3  1  0
  3  4  1  1
  3  5  1  0
  5  8  2  0
  5  6  1  0
  6  7  2  0
  7 10  1  0
  7 11  1  0
  8  9  1  0
  9 11  2  0
 10 12  1  0
 12 13  2  0
 12 14  1  0
 14 15  1  0
 15 16  2  0
 15 17  1  0
 16 18  1  0
 17 19  2  0
 18 20  2  0
 19 20  1  0
M  END
