WPC2607_minimised.pdb
     RDKit          3D

 23 24  0  0  0  0  0  0  0  0999 V2000
    8.4000    5.4740   22.1510 C   0  0  0  0  0  0  0  0  0  0  0  0
    8.7540    4.0760   22.6810 C   0  0  0  0  0  0  0  0  0  0  0  0
   10.0580    4.0690   23.4630 C   0  0  0  0  0  0  0  0  0  0  0  0
   10.1820    4.5210   24.5890 O   0  0  0  0  0  0  0  0  0  0  0  0
   11.0420    3.4600   22.7560 O   0  0  0  0  0  0  0  0  0  0  0  0
   12.3030    3.1650   23.3630 C   0  0  0  0  0  0  0  0  0  0  0  0
   12.1650    1.8320   24.1270 C   0  0  0  0  0  0  0  0  0  0  0  0
   11.6590    0.6970   23.2630 C   0  0  0  0  0  0  0  0  0  0  0  0
   12.5610   -0.1230   22.5650 C   0  0  0  0  0  0  0  0  0  0  0  0
   12.0820   -1.1750   21.7710 C   0  0  0  0  0  0  0  0  0  0  0  0
   10.7000   -1.3820   21.6470 C   0  0  0  0  0  0  0  0  0  0  0  0
    9.8000   -0.5330   22.3040 C   0  0  0  0  0  0  0  0  0  0  0  0
    8.4260   -0.5920   22.0030 N   0  0  0  0  0  0  0  0  0  0  0  0
    7.9220   -0.1700   20.8040 C   0  0  0  0  0  0  0  0  0  0  0  0
    8.6170    0.1770   19.8700 O   0  0  0  0  0  0  0  0  0  0  0  0
    6.5570   -0.1240   20.7450 N   0  0  0  0  0  0  0  0  0  0  0  0
    5.8420    0.4510   19.6660 C   0  0  0  0  0  0  0  0  0  0  0  0
    4.8970    1.4510   19.9220 C   0  0  0  0  0  0  0  0  0  0  0  0
    4.3410    2.1160   18.8210 C   0  0  0  0  0  0  0  0  0  0  0  0
    4.7540    1.7780   17.5240 C   0  0  0  0  0  0  0  0  0  0  0  0
    5.6260    0.7770   17.2660 N   0  0  0  0  0  0  0  0  0  0  0  0
    6.1650    0.1420   18.3260 C   0  0  0  0  0  0  0  0  0  0  0  0
   10.2780    0.4850   23.1350 C   0  0  0  0  0  0  0  0  0  0  0  0
  1  2  1  0
  2  3  1  0
  3  4  2  0
  3  5  1  0
  5  6  1  0
  6  7  1  0
  7  8  1  0
  8 23  2  0
  8  9  1  0
  9 10  2  0
 10 11  1  0
 11 12  2  0
 12 13  1  0
 12 23  1  0
 13 14  1  0
 14 15  2  0
 14 16  1  0
 16 17  1  0
 17 18  2  0
 17 22  1  0
 18 19  1  0
 19 20  2  0
 20 21  1  0
 21 22  2  0
M  END
