WPC2919_minimised.pdb
     RDKit          3D

 17 18  0  0  0  0  0  0  0  0999 V2000
   13.6120   -1.1790   21.3730 Br  0  0  0  0  0  0  0  0  0  0  0  0
   12.2300   -0.1820   22.2200 C   0  0  0  0  0  0  0  0  0  0  0  0
   10.8890   -0.5010   21.9600 C   0  0  0  0  0  0  0  0  0  0  0  0
    9.8620    0.2430   22.5630 C   0  0  0  0  0  0  0  0  0  0  0  0
   12.5510    0.8820   23.0770 C   0  0  0  0  0  0  0  0  0  0  0  0
   11.5230    1.6230   23.6810 C   0  0  0  0  0  0  0  0  0  0  0  0
    8.5110    0.0070   22.2280 N   0  0  0  0  0  0  0  0  0  0  0  0
   10.1800    1.2960   23.4330 C   0  0  0  0  0  0  0  0  0  0  0  0
    8.0130    0.1040   20.9580 C   0  0  0  0  0  0  0  0  0  0  0  0
    8.7120    0.2280   19.9740 O   0  0  0  0  0  0  0  0  0  0  0  0
    6.6460    0.1090   20.8890 N   0  0  0  0  0  0  0  0  0  0  0  0
    5.9130    0.5570   19.7620 C   0  0  0  0  0  0  0  0  0  0  0  0
    6.2340    0.1550   18.4450 C   0  0  0  0  0  0  0  0  0  0  0  0
    4.9310    1.5370   19.9490 C   0  0  0  0  0  0  0  0  0  0  0  0
    5.6600    0.6860   17.3450 N   0  0  0  0  0  0  0  0  0  0  0  0
    4.3400    2.0940   18.8080 C   0  0  0  0  0  0  0  0  0  0  0  0
    4.7550    1.6720   17.5370 C   0  0  0  0  0  0  0  0  0  0  0  0
  1  2  1  0
  2  3  2  0
  2  5  1  0
  3  4  1  0
  4  8  2  0
  4  7  1  0
  5  6  2  0
  6  8  1  0
  7  9  1  0
  9 10  2  0
  9 11  1  0
 11 12  1  0
 12 13  2  0
 12 14  1  0
 13 15  1  0
 14 16  2  0
 15 17  2  0
 16 17  1  0
M  END
