WPC2619_minimised.pdb
     RDKit          3D

 24 25  0  0  0  0  0  0  0  0999 V2000
   14.1380    4.4060   20.1940 C   0  0  0  0  0  0  0  0  0  0  0  0
   13.6690    3.8190   21.5370 C   0  0  0  0  0  0  0  0  0  0  0  0
   13.5170    4.8720   22.6150 C   0  0  0  0  0  0  0  0  0  0  0  0
   12.8910    4.6750   23.7250 N   0  0  0  0  0  0  0  0  0  0  0  0
   12.1650    3.5300   23.9630 N   0  0  0  0  0  0  0  0  0  0  0  0
   10.8820    3.4990   24.4860 C   0  0  0  0  0  0  0  0  0  0  0  0
   10.1890    4.4890   24.6450 O   0  0  0  0  0  0  0  0  0  0  0  0
   10.4490    2.1140   24.9620 C   0  0  0  0  0  0  0  0  0  0  0  0
   10.3020    1.0640   23.8800 C   0  0  0  0  0  0  0  0  0  0  0  0
   11.3750    0.2220   23.5340 C   0  0  0  0  0  0  0  0  0  0  0  0
   11.1830   -0.8170   22.6060 C   0  0  0  0  0  0  0  0  0  0  0  0
    9.9240   -1.0050   22.0140 C   0  0  0  0  0  0  0  0  0  0  0  0
    8.8570   -0.1700   22.3730 C   0  0  0  0  0  0  0  0  0  0  0  0
    7.5880   -0.3100   21.7910 N   0  0  0  0  0  0  0  0  0  0  0  0
    7.3230   -0.0480   20.4830 C   0  0  0  0  0  0  0  0  0  0  0  0
    8.1700    0.0350   19.6160 O   0  0  0  0  0  0  0  0  0  0  0  0
    5.9930    0.1790   20.2710 N   0  0  0  0  0  0  0  0  0  0  0  0
    5.4460    0.8170   19.1370 C   0  0  0  0  0  0  0  0  0  0  0  0
    4.4680    1.8010   19.3250 C   0  0  0  0  0  0  0  0  0  0  0  0
    4.0360    2.5100   18.1980 C   0  0  0  0  0  0  0  0  0  0  0  0
    4.6080    2.2380   16.9490 C   0  0  0  0  0  0  0  0  0  0  0  0
    5.5210    1.2590   16.7530 N   0  0  0  0  0  0  0  0  0  0  0  0
    5.9300    0.5720   17.8360 C   0  0  0  0  0  0  0  0  0  0  0  0
    9.0460    0.8620   23.2970 C   0  0  0  0  0  0  0  0  0  0  0  0
  1  2  1  0
  2  3  1  0
  3  4  2  0
  4  5  1  0
  5  6  1  0
  6  7  2  0
  6  8  1  0
  8  9  1  0
  9 24  2  0
  9 10  1  0
 10 11  2  0
 11 12  1  0
 12 13  2  0
 13 14  1  0
 13 24  1  0
 14 15  1  0
 15 16  2  0
 15 17  1  0
 17 18  1  0
 18 19  2  0
 18 23  1  0
 19 20  1  0
 20 21  2  0
 21 22  1  0
 22 23  2  0
M  END
