WPC2185_minimised.pdb
     RDKit          3D

 24 26  0  0  1  0  0  0  0  0999 V2000
    8.6350    0.1180   19.7830 O   0  0  0  0  0  0  0  0  0  0  0  0
    7.9530   -0.3360   20.6790 C   0  0  0  0  0  0  0  0  0  0  0  0
    6.5940   -0.4420   20.5770 N   0  0  0  0  0  0  0  0  0  0  0  0
    5.8580    0.1890   19.5480 C   0  0  0  0  0  0  0  0  0  0  0  0
    4.9380    1.1920   19.8780 C   0  0  0  0  0  0  0  0  0  0  0  0
    4.3580    1.9150   18.8260 C   0  0  0  0  0  0  0  0  0  0  0  0
    4.7240    1.6240   17.5030 C   0  0  0  0  0  0  0  0  0  0  0  0
    5.5900    0.6390   17.1790 N   0  0  0  0  0  0  0  0  0  0  0  0
    6.1540   -0.0500   18.1910 C   0  0  0  0  0  0  0  0  0  0  0  0
    8.4350   -0.6950   21.9050 N   0  0  0  0  0  0  0  0  0  0  0  0
    9.6220   -0.1570   22.4340 C   0  0  0  0  0  0  0  0  0  0  0  0
   10.8890   -0.5980   22.0210 C   0  0  0  0  0  0  0  0  0  0  0  0
   12.0410    0.0570   22.4910 C   0  0  0  0  0  0  0  0  0  0  0  0
   11.9210    1.1570   23.3610 C   0  0  0  0  0  0  0  0  0  0  0  0
   10.6480    1.5940   23.7700 C   0  0  0  0  0  0  0  0  0  0  0  0
   10.4600    2.7970   24.6710 C   0  0  0  0  0  0  0  0  0  0  0  0
    9.6820    4.1940   23.7430 S   0  0  0  0  0  0  0  0  0  0  0  0
   11.0670    5.2020   23.6250 C   0  0  0  0  0  0  0  0  0  0  0  0
   11.7940    5.6200   24.5930 N   0  0  0  0  0  0  0  0  0  0  0  0
   13.1670    6.0530   24.2880 C   0  0  0  0  0  0  0  0  0  0  0  0
   13.7700    5.0710   23.2490 C   0  0  0  0  0  0  0  0  0  0  0  0
   12.9420    5.1140   21.9680 C   0  0  0  0  0  0  0  0  0  0  0  0
   11.5280    5.1660   22.3340 N   0  0  0  0  0  0  0  0  0  0  0  0
    9.5070    0.9260   23.3090 C   0  0  0  0  0  0  0  0  0  0  0  0
  1  2  2  0
  2  3  1  0
  2 10  1  0
  3  4  1  0
  4  5  2  0
  4  9  1  0
  5  6  1  0
  6  7  2  0
  7  8  1  0
  8  9  2  0
 10 11  1  0
 11 24  1  0
 11 12  2  0
 12 13  1  0
 13 14  2  0
 14 15  1  0
 15 16  1  0
 15 24  2  0
 16 17  1  0
 18 17  1  0
 18 19  1  0
 18 23  1  0
 19 20  1  0
 20 21  1  0
 21 22  1  0
 22 23  1  0
M  END
