WPC2031_minimised.pdb
     RDKit          3D

 24 26  0  0  0  0  0  0  0  0999 V2000
    8.6810    0.1940   19.9020 O   0  0  0  0  0  0  0  0  0  0  0  0
    8.0400   -0.1130   20.8860 C   0  0  0  0  0  0  0  0  0  0  0  0
    6.6720   -0.0670   20.8900 N   0  0  0  0  0  0  0  0  0  0  0  0
    5.9080    0.4460   19.8100 C   0  0  0  0  0  0  0  0  0  0  0  0
    4.9630    1.4500   20.0530 C   0  0  0  0  0  0  0  0  0  0  0  0
    4.3620    2.0600   18.9440 C   0  0  0  0  0  0  0  0  0  0  0  0
    4.7290    1.6640   17.6480 C   0  0  0  0  0  0  0  0  0  0  0  0
    5.5950    0.6550   17.4040 N   0  0  0  0  0  0  0  0  0  0  0  0
    6.1790    0.0750   18.4720 C   0  0  0  0  0  0  0  0  0  0  0  0
    8.6260   -0.5000   22.0610 N   0  0  0  0  0  0  0  0  0  0  0  0
   10.0260   -0.5480   22.2190 C   0  0  0  0  0  0  0  0  0  0  0  0
   10.7600   -1.5300   21.5440 C   0  0  0  0  0  0  0  0  0  0  0  0
   12.1590   -1.4550   21.4970 C   0  0  0  0  0  0  0  0  0  0  0  0
   12.8270   -0.4090   22.1420 C   0  0  0  0  0  0  0  0  0  0  0  0
   12.0990    0.5550   22.8560 C   0  0  0  0  0  0  0  0  0  0  0  0
   12.8470    1.6650   23.5650 C   0  0  0  0  0  0  0  0  0  0  0  0
   12.2530    3.0660   23.3270 C   0  0  0  0  0  0  0  0  0  0  0  0
   11.2300    3.2930   24.3110 O   0  0  0  0  0  0  0  0  0  0  0  0
   10.4680    4.4760   23.9970 N   0  0  0  0  0  0  0  0  0  0  0  0
    9.4500    4.5100   23.0820 C   0  0  0  0  0  0  0  0  0  0  0  0
    9.2160    5.8460   22.8870 C   0  0  0  0  0  0  0  0  0  0  0  0
   10.0620    6.6060   23.6690 N   0  0  0  0  0  0  0  0  0  0  0  0
   10.8340    5.7570   24.3220 C   0  0  0  0  0  0  0  0  0  0  0  0
   10.6940    0.4790   22.8980 C   0  0  0  0  0  0  0  0  0  0  0  0
  1  2  2  0
  2  3  1  0
  2 10  1  0
  3  4  1  0
  4  5  2  0
  4  9  1  0
  5  6  1  0
  6  7  2  0
  7  8  1  0
  8  9  2  0
 10 11  1  0
 11 24  1  0
 11 12  2  0
 12 13  1  0
 13 14  2  0
 14 15  1  0
 15 16  1  0
 15 24  2  0
 16 17  1  0
 17 18  1  0
 18 19  1  0
 19 20  1  0
 19 23  1  0
 20 21  2  0
 21 22  1  0
 22 23  2  0
M  END
