WPC2623_minimised.pdb
     RDKit          3D

 24 25  0  0  0  0  0  0  0  0999 V2000
   13.7080    5.5620   21.6680 C   0  0  0  0  0  0  0  0  0  0  0  0
   14.0780    4.1920   21.0830 C   0  0  0  0  0  0  0  0  0  0  0  0
   13.7190    3.0570   22.0650 C   0  0  0  0  0  0  0  0  0  0  0  0
   12.2100    2.8920   22.2350 C   0  0  0  0  0  0  0  0  0  0  0  0
   11.5060    2.3840   21.3850 O   0  0  0  0  0  0  0  0  0  0  0  0
   11.7320    3.3370   23.4460 N   0  0  0  0  0  0  0  0  0  0  0  0
   10.3510    3.1430   23.8980 C   0  0  0  0  0  0  0  0  0  0  0  0
   10.1990    1.8330   24.6990 C   0  0  0  0  0  0  0  0  0  0  0  0
   10.1260    0.6190   23.7970 C   0  0  0  0  0  0  0  0  0  0  0  0
   11.2750   -0.1070   23.4360 C   0  0  0  0  0  0  0  0  0  0  0  0
   11.1800   -1.1730   22.5230 C   0  0  0  0  0  0  0  0  0  0  0  0
    9.9360   -1.5050   21.9630 C   0  0  0  0  0  0  0  0  0  0  0  0
    8.7930   -0.7830   22.3350 C   0  0  0  0  0  0  0  0  0  0  0  0
    7.5510   -0.9770   21.7150 N   0  0  0  0  0  0  0  0  0  0  0  0
    7.3210   -0.6350   20.4160 C   0  0  0  0  0  0  0  0  0  0  0  0
    8.1600   -0.6370   19.5370 O   0  0  0  0  0  0  0  0  0  0  0  0
    6.0310   -0.2220   20.2400 N   0  0  0  0  0  0  0  0  0  0  0  0
    5.5350    0.5290   19.1520 C   0  0  0  0  0  0  0  0  0  0  0  0
    4.5940    1.5360   19.4040 C   0  0  0  0  0  0  0  0  0  0  0  0
    4.1820    2.3270   18.3260 C   0  0  0  0  0  0  0  0  0  0  0  0
    4.7380    2.1140   17.0580 C   0  0  0  0  0  0  0  0  0  0  0  0
    5.6200    1.1230   16.8000 N   0  0  0  0  0  0  0  0  0  0  0  0
    6.0140    0.3580   17.8360 C   0  0  0  0  0  0  0  0  0  0  0  0
    8.8860    0.2640   23.2540 C   0  0  0  0  0  0  0  0  0  0  0  0
  1  2  1  0
  2  3  1  0
  3  4  1  0
  4  5  2  0
  4  6  1  0
  6  7  1  0
  7  8  1  0
  8  9  1  0
  9 24  2  0
  9 10  1  0
 10 11  2  0
 11 12  1  0
 12 13  2  0
 13 14  1  0
 13 24  1  0
 14 15  1  0
 15 16  2  0
 15 17  1  0
 17 18  1  0
 18 19  2  0
 18 23  1  0
 19 20  1  0
 20 21  2  0
 21 22  1  0
 22 23  2  0
M  END
