WPC2715_minimised.pdb
     RDKit          3D

 19 20  0  0  0  0  0  0  0  0999 V2000
   13.7120   -1.1280   21.4080 C   0  0  0  0  0  0  0  0  0  0  0  0
   12.5540   -0.5520   22.2350 C   0  0  0  0  0  0  0  0  0  0  0  0
   11.6260   -1.6570   22.7760 C   0  0  0  0  0  0  0  0  0  0  0  0
   10.3990   -1.0420   23.4170 C   0  0  0  0  0  0  0  0  0  0  0  0
    9.2710   -0.8190   22.6190 C   0  0  0  0  0  0  0  0  0  0  0  0
    8.1410   -0.1810   23.1480 C   0  0  0  0  0  0  0  0  0  0  0  0
   10.3890   -0.6340   24.7620 C   0  0  0  0  0  0  0  0  0  0  0  0
    9.2470   -0.0260   25.3070 C   0  0  0  0  0  0  0  0  0  0  0  0
    7.0190    0.0830   22.3390 N   0  0  0  0  0  0  0  0  0  0  0  0
    8.1210    0.2000   24.4990 C   0  0  0  0  0  0  0  0  0  0  0  0
    7.0020    0.4130   21.0110 C   0  0  0  0  0  0  0  0  0  0  0  0
    7.9750    0.5040   20.2820 O   0  0  0  0  0  0  0  0  0  0  0  0
    5.7210    0.6230   20.5880 N   0  0  0  0  0  0  0  0  0  0  0  0
    5.3150    1.1180   19.3310 C   0  0  0  0  0  0  0  0  0  0  0  0
    5.9440    0.7380   18.1250 C   0  0  0  0  0  0  0  0  0  0  0  0
    4.2960    2.0750   19.2970 C   0  0  0  0  0  0  0  0  0  0  0  0
    5.6340    1.2760   16.9270 N   0  0  0  0  0  0  0  0  0  0  0  0
    3.9790    2.6400   18.0590 C   0  0  0  0  0  0  0  0  0  0  0  0
    4.6960    2.2520   16.9210 C   0  0  0  0  0  0  0  0  0  0  0  0
  1  2  1  0
  2  3  1  0
  3  4  1  0
  4  7  2  0
  4  5  1  0
  5  6  2  0
  6  9  1  0
  6 10  1  0
  7  8  1  0
  8 10  2  0
  9 11  1  0
 11 12  2  0
 11 13  1  0
 13 14  1  0
 14 15  2  0
 14 16  1  0
 15 17  1  0
 16 18  2  0
 17 19  2  0
 18 19  1  0
M  END
