WPC2799_minimised.pdb
     RDKit          3D

 24 26  0  0  1  0  0  0  0  0999 V2000
   12.6270   -2.2740   23.0710 C   0  0  0  0  0  0  0  0  0  0  0  0
   13.2500   -1.0260   22.6210 N   0  0  0  0  0  0  0  0  0  0  0  0
   13.7000   -0.8300   21.3380 C   0  0  0  0  0  0  0  0  0  0  0  0
   14.0730   -1.6940   20.5610 O   0  0  0  0  0  0  0  0  0  0  0  0
   13.5720    0.6640   21.0630 C   0  0  1  0  0  0  0  0  0  0  0  0
   12.2470    0.9760   20.6290 O   0  0  0  0  0  0  0  0  0  0  0  0
   13.7260    1.2790   22.4500 C   0  0  0  0  0  0  0  0  0  0  0  0
   13.0380    0.2360   23.3480 C   0  0  1  0  0  0  0  0  0  0  0  0
   11.5720    0.5900   23.5990 C   0  0  0  0  0  0  0  0  0  0  0  0
   10.4900    0.0400   22.8780 C   0  0  0  0  0  0  0  0  0  0  0  0
    9.1750    0.4350   23.1700 C   0  0  0  0  0  0  0  0  0  0  0  0
   11.3010    1.5560   24.5760 C   0  0  0  0  0  0  0  0  0  0  0  0
    9.9910    1.9150   24.9020 C   0  0  0  0  0  0  0  0  0  0  0  0
    8.0900   -0.0260   22.4080 N   0  0  0  0  0  0  0  0  0  0  0  0
    8.9210    1.3490   24.2000 C   0  0  0  0  0  0  0  0  0  0  0  0
    7.9050    0.2330   21.0780 C   0  0  0  0  0  0  0  0  0  0  0  0
    8.7640    0.6290   20.3140 O   0  0  0  0  0  0  0  0  0  0  0  0
    6.5960    0.0570   20.7340 N   0  0  0  0  0  0  0  0  0  0  0  0
    5.9650    0.5930   19.5920 C   0  0  0  0  0  0  0  0  0  0  0  0
    6.3740    0.2740   18.2820 C   0  0  0  0  0  0  0  0  0  0  0  0
    4.9370    1.5260   19.7800 C   0  0  0  0  0  0  0  0  0  0  0  0
    5.7950    0.8040   17.1820 N   0  0  0  0  0  0  0  0  0  0  0  0
    4.3660    2.1050   18.6430 C   0  0  0  0  0  0  0  0  0  0  0  0
    4.8300    1.7330   17.3740 C   0  0  0  0  0  0  0  0  0  0  0  0
  1  2  1  0
  2  3  1  0
  2  8  1  0
  3  4  2  0
  3  5  1  0
  5  6  1  1
  5  7  1  0
  7  8  1  0
  8  9  1  6
  9 12  1  0
  9 10  2  0
 10 11  1  0
 11 14  1  0
 11 15  2  0
 12 13  2  0
 13 15  1  0
 14 16  1  0
 16 17  2  0
 16 18  1  0
 18 19  1  0
 19 20  2  0
 19 21  1  0
 20 22  1  0
 21 23  2  0
 22 24  2  0
 23 24  1  0
M  END
