WPC2325_minimised.pdb
     RDKit          3D

 24 25  0  0  0  0  0  0  0  0999 V2000
    8.6010    4.9170   22.6410 C   0  0  0  0  0  0  0  0  0  0  0  0
    9.8920    5.7490   22.7450 C   0  0  0  0  0  0  0  0  0  0  0  0
   10.9680    5.0200   23.4380 N   0  0  0  0  0  0  0  0  0  0  0  0
   11.0590    5.2740   24.8810 C   0  0  0  0  0  0  0  0  0  0  0  0
   12.2680    6.1540   25.2380 C   0  0  0  0  0  0  0  0  0  0  0  0
   11.9960    4.3970   22.7330 C   0  0  0  0  0  0  0  0  0  0  0  0
   12.4960    4.9390   21.7670 O   0  0  0  0  0  0  0  0  0  0  0  0
   12.5190    3.0610   23.2840 C   0  0  0  0  0  0  0  0  0  0  0  0
   11.9600    1.7580   22.7240 C   0  0  0  0  0  0  0  0  0  0  0  0
   12.8400    0.7000   22.4240 C   0  0  0  0  0  0  0  0  0  0  0  0
   12.3460   -0.5350   21.9730 C   0  0  0  0  0  0  0  0  0  0  0  0
   10.9630   -0.7310   21.8520 C   0  0  0  0  0  0  0  0  0  0  0  0
   10.0790    0.3070   22.1800 C   0  0  0  0  0  0  0  0  0  0  0  0
    8.6900    0.1320   22.0060 N   0  0  0  0  0  0  0  0  0  0  0  0
    8.0740    0.1700   20.7870 C   0  0  0  0  0  0  0  0  0  0  0  0
    8.6820    0.2290   19.7400 O   0  0  0  0  0  0  0  0  0  0  0  0
    6.7060    0.2020   20.8300 N   0  0  0  0  0  0  0  0  0  0  0  0
    5.9040    0.6250   19.7400 C   0  0  0  0  0  0  0  0  0  0  0  0
    4.9540    1.6300   19.9550 C   0  0  0  0  0  0  0  0  0  0  0  0
    4.3220    2.1800   18.8330 C   0  0  0  0  0  0  0  0  0  0  0  0
    4.6700    1.7290   17.5520 C   0  0  0  0  0  0  0  0  0  0  0  0
    5.5350    0.7120   17.3380 N   0  0  0  0  0  0  0  0  0  0  0  0
    6.1430    0.1840   18.4190 C   0  0  0  0  0  0  0  0  0  0  0  0
   10.5760    1.5450   22.6160 C   0  0  0  0  0  0  0  0  0  0  0  0
  1  2  1  0
  2  3  1  0
  3  4  1  0
  3  6  1  0
  4  5  1  0
  6  7  2  0
  6  8  1  0
  8  9  1  0
  9 24  2  0
  9 10  1  0
 10 11  2  0
 11 12  1  0
 12 13  2  0
 13 14  1  0
 13 24  1  0
 14 15  1  0
 15 16  2  0
 15 17  1  0
 17 18  1  0
 18 19  2  0
 18 23  1  0
 19 20  1  0
 20 21  2  0
 21 22  1  0
 22 23  2  0
M  END
