WPC2829_minimised.pdb
     RDKit          3D

 24 26  0  0  1  0  0  0  0  0999 V2000
   14.8320    0.2810   17.4300 O   0  0  0  0  0  0  0  0  0  0  0  0
   15.4330    0.7110   18.4000 C   0  0  0  0  0  0  0  0  0  0  0  0
   15.7120    2.0440   18.5400 O   0  0  0  0  0  0  0  0  0  0  0  0
   15.7560    2.3850   19.8510 C   0  0  0  0  0  0  0  0  0  0  0  0
   15.5090    1.3500   20.6390 C   0  0  0  0  0  0  0  0  0  0  0  0
   15.4160    0.0910   19.8360 C   0  0  1  0  0  0  0  0  0  0  0  0
   14.2930   -0.8310   20.2110 N   0  0  0  0  0  0  0  0  0  0  0  0
   14.0890   -1.1750   21.6340 C   0  0  0  0  0  0  0  0  0  0  0  0
   12.8890   -0.4830   22.2670 C   0  0  0  0  0  0  0  0  0  0  0  0
   11.5730   -0.8470   21.9140 C   0  0  0  0  0  0  0  0  0  0  0  0
   10.4700   -0.2270   22.5290 C   0  0  0  0  0  0  0  0  0  0  0  0
   13.0820    0.4910   23.2650 C   0  0  0  0  0  0  0  0  0  0  0  0
   11.9790    1.1100   23.8730 C   0  0  0  0  0  0  0  0  0  0  0  0
    9.1490   -0.5240   22.1320 N   0  0  0  0  0  0  0  0  0  0  0  0
   10.6760    0.7520   23.5070 C   0  0  0  0  0  0  0  0  0  0  0  0
    8.4510    0.1930   21.1980 C   0  0  0  0  0  0  0  0  0  0  0  0
    8.9200    1.1310   20.5910 O   0  0  0  0  0  0  0  0  0  0  0  0
    7.1750   -0.2410   20.9630 N   0  0  0  0  0  0  0  0  0  0  0  0
    6.3510    0.2830   19.9340 C   0  0  0  0  0  0  0  0  0  0  0  0
    6.5910   -0.0480   18.5840 C   0  0  0  0  0  0  0  0  0  0  0  0
    5.3840    1.2540   20.2270 C   0  0  0  0  0  0  0  0  0  0  0  0
    5.9170    0.4950   17.5480 N   0  0  0  0  0  0  0  0  0  0  0  0
    4.7060    1.8480   19.1510 C   0  0  0  0  0  0  0  0  0  0  0  0
    5.0070    1.4520   17.8370 C   0  0  0  0  0  0  0  0  0  0  0  0
  1  2  2  0
  2  3  1  0
  2  6  1  0
  3  4  1  0
  4  5  2  0
  5  6  1  0
  6  7  1  1
  7  8  1  0
  8  9  1  0
  9 12  1  0
  9 10  2  0
 10 11  1  0
 11 14  1  0
 11 15  2  0
 12 13  2  0
 13 15  1  0
 14 16  1  0
 16 17  2  0
 16 18  1  0
 18 19  1  0
 19 20  2  0
 19 21  1  0
 20 22  1  0
 21 23  2  0
 22 24  2  0
 23 24  1  0
M  END
