WPC2729_minimised.pdb
     RDKit          3D

 19 20  0  0  0  0  0  0  0  0999 V2000
   13.8210   -1.7420   20.5820 N   0  0  0  0  0  0  0  0  0  0  0  0
   13.6190   -0.9870   21.4270 C   0  0  0  0  0  0  0  0  0  0  0  0
   13.4510   -0.1100   22.3940 O   0  0  0  0  0  0  0  0  0  0  0  0
   12.2180    0.3920   22.7470 C   0  0  0  0  0  0  0  0  0  0  0  0
   10.9870   -0.1930   22.3780 C   0  0  0  0  0  0  0  0  0  0  0  0
    9.7830    0.3870   22.8160 C   0  0  0  0  0  0  0  0  0  0  0  0
   12.2240    1.5550   23.5270 C   0  0  0  0  0  0  0  0  0  0  0  0
   11.0230    2.1250   23.9750 C   0  0  0  0  0  0  0  0  0  0  0  0
    8.5330   -0.0970   22.3800 N   0  0  0  0  0  0  0  0  0  0  0  0
    9.8040    1.5300   23.6260 C   0  0  0  0  0  0  0  0  0  0  0  0
    8.0800    0.0670   21.1010 C   0  0  0  0  0  0  0  0  0  0  0  0
    8.7980    0.3670   20.1720 O   0  0  0  0  0  0  0  0  0  0  0  0
    6.7240   -0.0650   20.9630 N   0  0  0  0  0  0  0  0  0  0  0  0
    6.0060    0.4070   19.8360 C   0  0  0  0  0  0  0  0  0  0  0  0
    6.3560    0.0410   18.5170 C   0  0  0  0  0  0  0  0  0  0  0  0
    5.0180    1.3820   20.0280 C   0  0  0  0  0  0  0  0  0  0  0  0
    5.7850    0.5830   17.4200 N   0  0  0  0  0  0  0  0  0  0  0  0
    4.4420    1.9600   18.8900 C   0  0  0  0  0  0  0  0  0  0  0  0
    4.8690    1.5570   17.6160 C   0  0  0  0  0  0  0  0  0  0  0  0
  1  2  3  0
  2  3  1  0
  3  4  1  0
  4  7  2  0
  4  5  1  0
  5  6  2  0
  6  9  1  0
  6 10  1  0
  7  8  1  0
  8 10  2  0
  9 11  1  0
 11 12  2  0
 11 13  1  0
 13 14  1  0
 14 15  2  0
 14 16  1  0
 15 17  1  0
 16 18  2  0
 17 19  2  0
 18 19  1  0
M  END
