WPC2442_minimised.pdb
     RDKit          3D

 23 24  0  0  0  0  0  0  0  0999 V2000
    8.9840    0.5540   20.2420 O   0  0  0  0  0  0  0  0  0  0  0  0
    8.2980    0.1740   21.1670 C   0  0  0  0  0  0  0  0  0  0  0  0
    6.9330    0.1340   21.0900 N   0  0  0  0  0  0  0  0  0  0  0  0
    6.1830    0.5620   19.9660 C   0  0  0  0  0  0  0  0  0  0  0  0
    5.1630    1.5050   20.1410 C   0  0  0  0  0  0  0  0  0  0  0  0
    4.5390    2.0090   18.9930 C   0  0  0  0  0  0  0  0  0  0  0  0
    4.9450    1.5600   17.7270 C   0  0  0  0  0  0  0  0  0  0  0  0
    5.8850    0.6040   17.5480 N   0  0  0  0  0  0  0  0  0  0  0  0
    6.5060    0.1420   18.6550 C   0  0  0  0  0  0  0  0  0  0  0  0
    8.8200   -0.2590   22.3540 N   0  0  0  0  0  0  0  0  0  0  0  0
   10.2020   -0.3940   22.5890 C   0  0  0  0  0  0  0  0  0  0  0  0
   10.7370   -1.6680   22.8170 C   0  0  0  0  0  0  0  0  0  0  0  0
   12.1250   -1.8310   22.9120 C   0  0  0  0  0  0  0  0  0  0  0  0
   12.9720   -0.7190   22.7760 C   0  0  0  0  0  0  0  0  0  0  0  0
   12.4410    0.5660   22.6120 C   0  0  0  0  0  0  0  0  0  0  0  0
   13.6000    1.9220   22.5170 S   0  0  0  0  0  0  0  0  0  0  0  0
   12.6630    3.4300   22.0260 C   0  0  0  0  0  0  0  0  0  0  0  0
   12.0600    4.0860   23.2710 C   0  0  0  0  0  0  0  0  0  0  0  0
   11.3700    5.3320   22.9270 N   0  0  0  0  0  0  0  0  0  0  0  0
   10.8460    6.0570   24.1030 C   0  0  0  0  0  0  0  0  0  0  0  0
   11.9700    6.5420   25.0680 C   0  0  0  0  0  0  0  0  0  0  0  0
   12.0500    5.7240   26.2380 O   0  0  0  0  0  0  0  0  0  0  0  0
   11.0480    0.7260   22.5050 C   0  0  0  0  0  0  0  0  0  0  0  0
  1  2  2  0
  2 10  1  0
  2  3  1  0
  3  4  1  0
  4  5  2  0
  4  9  1  0
  5  6  1  0
  6  7  2  0
  7  8  1  0
  8  9  2  0
 10 11  1  0
 11 12  2  0
 11 23  1  0
 12 13  1  0
 13 14  2  0
 14 15  1  0
 15 16  1  0
 15 23  2  0
 16 17  1  0
 17 18  1  0
 18 19  1  0
 19 20  1  0
 20 21  1  0
 21 22  1  0
M  END
