WPC2842_minimised.pdb
     RDKit          3D

 19 20  0  0  0  0  0  0  0  0999 V2000
   14.1230   -1.4230   22.2450 F   0  0  0  0  0  0  0  0  0  0  0  0
   13.4660   -0.5390   21.4790 C   0  0  0  0  0  0  0  0  0  0  0  0
   13.1350   -1.2120   20.3590 F   0  0  0  0  0  0  0  0  0  0  0  0
   12.2750    0.0600   22.2140 C   0  0  0  0  0  0  0  0  0  0  0  0
   10.9580   -0.3550   21.9340 C   0  0  0  0  0  0  0  0  0  0  0  0
    9.8680    0.2380   22.5920 C   0  0  0  0  0  0  0  0  0  0  0  0
   12.4850    1.0730   23.1690 C   0  0  0  0  0  0  0  0  0  0  0  0
   11.3950    1.6570   23.8340 C   0  0  0  0  0  0  0  0  0  0  0  0
    8.5430   -0.0760   22.2210 N   0  0  0  0  0  0  0  0  0  0  0  0
   10.0880    1.2340   23.5530 C   0  0  0  0  0  0  0  0  0  0  0  0
    8.0530    0.0770   20.9520 C   0  0  0  0  0  0  0  0  0  0  0  0
    8.7530    0.3000   19.9850 O   0  0  0  0  0  0  0  0  0  0  0  0
    6.6880    0.0230   20.8680 N   0  0  0  0  0  0  0  0  0  0  0  0
    5.9500    0.4890   19.7530 C   0  0  0  0  0  0  0  0  0  0  0  0
    6.2720    0.1110   18.4310 C   0  0  0  0  0  0  0  0  0  0  0  0
    4.9670    1.4660   19.9570 C   0  0  0  0  0  0  0  0  0  0  0  0
    5.6860    0.6490   17.3410 N   0  0  0  0  0  0  0  0  0  0  0  0
    4.3730    2.0400   18.8270 C   0  0  0  0  0  0  0  0  0  0  0  0
    4.7790    1.6310   17.5480 C   0  0  0  0  0  0  0  0  0  0  0  0
  1  2  1  0
  2  4  1  0
  2  3  1  0
  4  5  2  0
  4  7  1  0
  5  6  1  0
  6 10  2  0
  6  9  1  0
  7  8  2  0
  8 10  1  0
  9 11  1  0
 11 12  2  0
 11 13  1  0
 13 14  1  0
 14 15  2  0
 14 16  1  0
 15 17  1  0
 16 18  2  0
 17 19  2  0
 18 19  1  0
M  END
