WPC2547_minimised.pdb
     RDKit          3D

 23 25  0  0  0  0  0  0  0  0999 V2000
    9.2260    6.4050   22.8900 N   0  0  0  0  0  0  0  0  0  0  0  0
   10.0330    5.3830   23.2230 C   0  0  0  0  0  0  0  0  0  0  0  0
   11.2960    5.6550   23.4130 N   0  0  0  0  0  0  0  0  0  0  0  0
   11.9800    4.4840   23.6560 C   0  0  0  0  0  0  0  0  0  0  0  0
   11.1780    3.3650   23.7100 C   0  0  0  0  0  0  0  0  0  0  0  0
   11.6960    2.0170   24.1480 C   0  0  0  0  0  0  0  0  0  0  0  0
   11.3500    0.8490   23.2470 C   0  0  0  0  0  0  0  0  0  0  0  0
   12.3610    0.1030   22.6120 C   0  0  0  0  0  0  0  0  0  0  0  0
   12.0280   -1.0160   21.8310 C   0  0  0  0  0  0  0  0  0  0  0  0
   10.6800   -1.3630   21.6520 C   0  0  0  0  0  0  0  0  0  0  0  0
    9.6730   -0.5970   22.2490 C   0  0  0  0  0  0  0  0  0  0  0  0
    8.3230   -0.7850   21.9000 N   0  0  0  0  0  0  0  0  0  0  0  0
    7.8300   -0.4040   20.6830 C   0  0  0  0  0  0  0  0  0  0  0  0
    8.5250   -0.1250   19.7270 O   0  0  0  0  0  0  0  0  0  0  0  0
    6.4680   -0.2950   20.6470 N   0  0  0  0  0  0  0  0  0  0  0  0
    5.7610    0.3380   19.5960 C   0  0  0  0  0  0  0  0  0  0  0  0
    4.8520    1.3600   19.8970 C   0  0  0  0  0  0  0  0  0  0  0  0
    4.2900    2.0680   18.8260 C   0  0  0  0  0  0  0  0  0  0  0  0
    4.6620    1.7480   17.5110 C   0  0  0  0  0  0  0  0  0  0  0  0
    5.5090    0.7380   17.2130 N   0  0  0  0  0  0  0  0  0  0  0  0
    6.0520    0.0600   18.2430 C   0  0  0  0  0  0  0  0  0  0  0  0
   10.0080    0.4750   23.0790 C   0  0  0  0  0  0  0  0  0  0  0  0
    9.5020    3.7380   23.4020 S   0  0  0  0  0  0  0  0  0  0  0  0
  1  2  1  0
  2 23  1  0
  2  3  2  0
  3  4  1  0
  4  5  2  0
  5  6  1  0
  5 23  1  0
  6  7  1  0
  7 22  1  0
  7  8  2  0
  8  9  1  0
  9 10  2  0
 10 11  1  0
 11 12  1  0
 11 22  2  0
 12 13  1  0
 13 14  2  0
 13 15  1  0
 15 16  1  0
 16 17  2  0
 16 21  1  0
 17 18  1  0
 18 19  2  0
 19 20  1  0
 20 21  2  0
M  END
