WPC2642_minimised.pdb
     RDKit          3D

 24 26  0  0  0  0  0  0  0  0999 V2000
    8.5220    0.1010   19.7870 O   0  0  0  0  0  0  0  0  0  0  0  0
    7.8280   -0.1960   20.7390 C   0  0  0  0  0  0  0  0  0  0  0  0
    6.4620   -0.1390   20.6900 N   0  0  0  0  0  0  0  0  0  0  0  0
    5.7420    0.4420   19.6180 C   0  0  0  0  0  0  0  0  0  0  0  0
    4.7990    1.4410   19.8860 C   0  0  0  0  0  0  0  0  0  0  0  0
    4.2340    2.1120   18.7940 C   0  0  0  0  0  0  0  0  0  0  0  0
    4.6350    1.7780   17.4910 C   0  0  0  0  0  0  0  0  0  0  0  0
    5.5070    0.7800   17.2220 N   0  0  0  0  0  0  0  0  0  0  0  0
    6.0530    0.1390   18.2740 C   0  0  0  0  0  0  0  0  0  0  0  0
    8.3330   -0.5640   21.9530 N   0  0  0  0  0  0  0  0  0  0  0  0
    9.7050   -0.4890   22.2560 C   0  0  0  0  0  0  0  0  0  0  0  0
   10.5970   -1.4300   21.7230 C   0  0  0  0  0  0  0  0  0  0  0  0
   11.9810   -1.2570   21.8810 C   0  0  0  0  0  0  0  0  0  0  0  0
   12.4670   -0.1410   22.5770 C   0  0  0  0  0  0  0  0  0  0  0  0
   11.5710    0.7790   23.1380 C   0  0  0  0  0  0  0  0  0  0  0  0
   12.2080    2.1760   24.0160 S   0  0  0  0  0  0  0  0  0  0  0  0
   11.3090    3.5970   23.2840 C   0  0  0  0  0  0  0  0  0  0  0  0
   12.0000    4.8830   23.6800 C   0  0  0  0  0  0  0  0  0  0  0  0
   11.6110    5.6140   24.8120 C   0  0  0  0  0  0  0  0  0  0  0  0
   12.3200    6.7750   25.1560 C   0  0  0  0  0  0  0  0  0  0  0  0
   13.3380    7.2480   24.4150 N   0  0  0  0  0  0  0  0  0  0  0  0
   13.7240    6.5350   23.3380 C   0  0  0  0  0  0  0  0  0  0  0  0
   13.0890    5.3550   22.9390 C   0  0  0  0  0  0  0  0  0  0  0  0
   10.1900    0.6080   22.9770 C   0  0  0  0  0  0  0  0  0  0  0  0
  1  2  2  0
  2  3  1  0
  2 10  1  0
  3  4  1  0
  4  5  2  0
  4  9  1  0
  5  6  1  0
  6  7  2  0
  7  8  1  0
  8  9  2  0
 10 11  1  0
 11 24  1  0
 11 12  2  0
 12 13  1  0
 13 14  2  0
 14 15  1  0
 15 16  1  0
 15 24  2  0
 16 17  1  0
 17 18  1  0
 18 19  2  0
 18 23  1  0
 19 20  1  0
 20 21  2  0
 21 22  1  0
 22 23  2  0
M  END
