WPC2801_minimised.pdb
     RDKit          3D

 21 22  0  0  0  0  0  0  0  0999 V2000
   16.1090    1.2660   18.6510 N   0  0  0  0  0  0  0  0  0  0  0  0
   15.7830    0.6530   19.9360 C   0  0  0  0  0  0  0  0  0  0  0  0
   14.6950   -0.4330   19.8260 C   0  0  0  0  0  0  0  0  0  0  0  0
   13.4300   -0.1390   20.6510 C   0  0  0  0  0  0  0  0  0  0  0  0
   13.7490   -0.0800   22.4530 S   0  0  0  0  0  0  0  0  0  0  0  0
   12.1240    0.0630   23.1930 C   0  0  0  0  0  0  0  0  0  0  0  0
   10.9270   -0.0290   22.4560 C   0  0  0  0  0  0  0  0  0  0  0  0
    9.6830    0.0430   23.1070 C   0  0  0  0  0  0  0  0  0  0  0  0
   12.0590    0.2270   24.5820 C   0  0  0  0  0  0  0  0  0  0  0  0
   10.8210    0.2670   25.2420 C   0  0  0  0  0  0  0  0  0  0  0  0
    8.4530   -0.0410   22.4150 N   0  0  0  0  0  0  0  0  0  0  0  0
    9.6350    0.1780   24.5020 C   0  0  0  0  0  0  0  0  0  0  0  0
    8.1620    0.2870   21.1180 C   0  0  0  0  0  0  0  0  0  0  0  0
    8.9630    0.6120   20.2630 O   0  0  0  0  0  0  0  0  0  0  0  0
    6.8160    0.2240   20.8890 N   0  0  0  0  0  0  0  0  0  0  0  0
    6.1340    0.6800   19.7390 C   0  0  0  0  0  0  0  0  0  0  0  0
    6.5020    0.2850   18.4350 C   0  0  0  0  0  0  0  0  0  0  0  0
    5.0890    1.5970   19.9040 C   0  0  0  0  0  0  0  0  0  0  0  0
    5.8820    0.7370   17.3230 N   0  0  0  0  0  0  0  0  0  0  0  0
    4.4740    2.0970   18.7510 C   0  0  0  0  0  0  0  0  0  0  0  0
    4.9100    1.6630   17.4920 C   0  0  0  0  0  0  0  0  0  0  0  0
  1  2  1  0
  2  3  1  0
  3  4  1  0
  4  5  1  0
  5  6  1  0
  6  9  2  0
  6  7  1  0
  7  8  2  0
  8 11  1  0
  8 12  1  0
  9 10  1  0
 10 12  2  0
 11 13  1  0
 13 14  2  0
 13 15  1  0
 15 16  1  0
 16 17  2  0
 16 18  1  0
 17 19  1  0
 18 20  2  0
 19 21  2  0
 20 21  1  0
M  END
