WPC2373_minimised.pdb
     RDKit          3D

 23 25  0  0  0  0  0  0  0  0999 V2000
    8.5760    0.0790   19.7630 O   0  0  0  0  0  0  0  0  0  0  0  0
    7.8230   -0.2520   20.6550 C   0  0  0  0  0  0  0  0  0  0  0  0
    6.4650   -0.2910   20.5080 N   0  0  0  0  0  0  0  0  0  0  0  0
    5.7840    0.3450   19.4460 C   0  0  0  0  0  0  0  0  0  0  0  0
    4.8350    1.3320   19.7410 C   0  0  0  0  0  0  0  0  0  0  0  0
    4.2990    2.0610   18.6720 C   0  0  0  0  0  0  0  0  0  0  0  0
    4.7370    1.7980   17.3660 C   0  0  0  0  0  0  0  0  0  0  0  0
    5.6250    0.8220   17.0710 N   0  0  0  0  0  0  0  0  0  0  0  0
    6.1430    0.1230   18.1010 C   0  0  0  0  0  0  0  0  0  0  0  0
    8.2270   -0.5240   21.9290 N   0  0  0  0  0  0  0  0  0  0  0  0
    9.4280   -0.0220   22.4580 C   0  0  0  0  0  0  0  0  0  0  0  0
   10.6630   -0.6330   22.1980 C   0  0  0  0  0  0  0  0  0  0  0  0
   11.8430   -0.0440   22.6830 C   0  0  0  0  0  0  0  0  0  0  0  0
   11.7820    1.1540   23.4180 C   0  0  0  0  0  0  0  0  0  0  0  0
   10.5430    1.7890   23.6410 C   0  0  0  0  0  0  0  0  0  0  0  0
   10.4300    3.1370   24.3470 C   0  0  0  0  0  0  0  0  0  0  0  0
   11.4140    4.1360   23.9300 N   0  0  0  0  0  0  0  0  0  0  0  0
   12.0860    4.2080   22.7380 C   0  0  0  0  0  0  0  0  0  0  0  0
   12.9270    5.2560   22.9110 C   0  0  0  0  0  0  0  0  0  0  0  0
   14.2090    5.9130   21.7070 Br  0  0  0  0  0  0  0  0  0  0  0  0
   12.7050    5.8390   24.1290 N   0  0  0  0  0  0  0  0  0  0  0  0
   11.7730    5.1650   24.7420 N   0  0  0  0  0  0  0  0  0  0  0  0
    9.3710    1.1830   23.1680 C   0  0  0  0  0  0  0  0  0  0  0  0
  1  2  2  0
  2  3  1  0
  2 10  1  0
  3  4  1  0
  4  5  2  0
  4  9  1  0
  5  6  1  0
  6  7  2  0
  7  8  1  0
  8  9  2  0
 10 11  1  0
 11 23  1  0
 11 12  2  0
 12 13  1  0
 13 14  2  0
 14 15  1  0
 15 16  1  0
 15 23  2  0
 16 17  1  0
 17 18  1  0
 17 22  1  0
 18 19  2  0
 19 20  1  0
 19 21  1  0
 21 22  2  0
M  END
