WPC2550_minimised.pdb
     RDKit          3D

 23 25  0  0  1  0  0  0  0  0999 V2000
    8.6820   -0.6030   19.8300 O   0  0  0  0  0  0  0  0  0  0  0  0
    7.9610   -0.7500   20.7980 C   0  0  0  0  0  0  0  0  0  0  0  0
    6.6510   -0.3670   20.7800 N   0  0  0  0  0  0  0  0  0  0  0  0
    6.0040    0.3200   19.7210 C   0  0  0  0  0  0  0  0  0  0  0  0
    5.1510    1.3920   20.0130 C   0  0  0  0  0  0  0  0  0  0  0  0
    4.5760    2.0820   18.9370 C   0  0  0  0  0  0  0  0  0  0  0  0
    4.8920    1.7080   17.6220 C   0  0  0  0  0  0  0  0  0  0  0  0
    5.6930    0.6600   17.3320 N   0  0  0  0  0  0  0  0  0  0  0  0
    6.2430   -0.0070   18.3670 C   0  0  0  0  0  0  0  0  0  0  0  0
    8.3650   -1.2760   21.9990 N   0  0  0  0  0  0  0  0  0  0  0  0
    9.7200   -1.2770   22.3840 C   0  0  0  0  0  0  0  0  0  0  0  0
   10.6870   -1.8590   21.5640 C   0  0  0  0  0  0  0  0  0  0  0  0
   12.0340   -1.4780   21.6680 C   0  0  0  0  0  0  0  0  0  0  0  0
   12.4030   -0.5040   22.6050 C   0  0  0  0  0  0  0  0  0  0  0  0
   11.4430   -0.0020   23.5020 C   0  0  0  0  0  0  0  0  0  0  0  0
   11.7990    1.1110   24.4660 C   0  0  0  0  0  0  0  0  0  0  0  0
   11.1300    2.4740   24.1350 C   0  0  1  0  0  0  0  0  0  0  0  0
   11.0100    2.7670   22.6300 C   0  0  0  0  0  0  0  0  0  0  0  0
    9.6190    2.4950   22.3400 O   0  0  0  0  0  0  0  0  0  0  0  0
    8.8570    2.4730   23.4650 C   0  0  0  0  0  0  0  0  0  0  0  0
    7.6790    2.1760   23.5540 O   0  0  0  0  0  0  0  0  0  0  0  0
    9.7340    2.4830   24.5150 N   0  0  0  0  0  0  0  0  0  0  0  0
   10.1130   -0.4420   23.4250 C   0  0  0  0  0  0  0  0  0  0  0  0
  1  2  2  0
  2 10  1  0
  2  3  1  0
  3  4  1  0
  4  5  2  0
  4  9  1  0
  5  6  1  0
  6  7  2  0
  7  8  1  0
  8  9  2  0
 10 11  1  0
 11 12  2  0
 11 23  1  0
 12 13  1  0
 13 14  2  0
 14 15  1  0
 15 16  1  0
 15 23  2  0
 17 16  1  6
 17 18  1  0
 17 22  1  0
 18 19  1  0
 19 20  1  0
 20 21  2  0
 20 22  1  0
M  END
