WPC2821_minimised.pdb
     RDKit          3D

 21 22  0  0  0  0  0  0  0  0999 V2000
   15.5770    1.1820   17.8390 C   0  0  0  0  0  0  0  0  0  0  0  0
   15.7720    0.6730   19.2830 C   0  0  0  0  0  0  0  0  0  0  0  0
   14.7410   -0.3910   19.7130 C   0  0  0  0  0  0  0  0  0  0  0  0
   14.2700   -0.1710   21.0920 N   0  0  0  0  0  0  0  0  0  0  0  0
   13.2500   -1.1250   21.5610 C   0  0  0  0  0  0  0  0  0  0  0  0
   12.1630   -0.4430   22.3860 C   0  0  0  0  0  0  0  0  0  0  0  0
   10.8030   -0.6470   22.0750 C   0  0  0  0  0  0  0  0  0  0  0  0
    9.7950    0.0270   22.7860 C   0  0  0  0  0  0  0  0  0  0  0  0
   12.4960    0.4470   23.4250 C   0  0  0  0  0  0  0  0  0  0  0  0
   11.4860    1.1250   24.1260 C   0  0  0  0  0  0  0  0  0  0  0  0
    8.4410   -0.1030   22.4100 N   0  0  0  0  0  0  0  0  0  0  0  0
   10.1380    0.9060   23.8190 C   0  0  0  0  0  0  0  0  0  0  0  0
    7.9220    0.3610   21.2330 C   0  0  0  0  0  0  0  0  0  0  0  0
    8.5850    0.9060   20.3760 O   0  0  0  0  0  0  0  0  0  0  0  0
    6.5790    0.1520   21.0700 N   0  0  0  0  0  0  0  0  0  0  0  0
    5.8550    0.5750   19.9270 C   0  0  0  0  0  0  0  0  0  0  0  0
    6.2390    0.1740   18.6270 C   0  0  0  0  0  0  0  0  0  0  0  0
    4.8290    1.5170   20.0690 C   0  0  0  0  0  0  0  0  0  0  0  0
    5.6570    0.6350   17.4990 N   0  0  0  0  0  0  0  0  0  0  0  0
    4.2520    2.0300   18.9000 C   0  0  0  0  0  0  0  0  0  0  0  0
    4.7030    1.5820   17.6490 C   0  0  0  0  0  0  0  0  0  0  0  0
  1  2  1  0
  2  3  1  0
  3  4  1  0
  4  5  1  0
  5  6  1  0
  6  9  2  0
  6  7  1  0
  7  8  2  0
  8 11  1  0
  8 12  1  0
  9 10  1  0
 10 12  2  0
 11 13  1  0
 13 14  2  0
 13 15  1  0
 15 16  1  0
 16 17  2  0
 16 18  1  0
 17 19  1  0
 18 20  2  0
 19 21  2  0
 20 21  1  0
M  END
