WPC2377_minimised.pdb
     RDKit          3D

 24 26  0  0  0  0  0  0  0  0999 V2000
    9.4490    5.8940   22.9900 C   0  0  0  0  0  0  0  0  0  0  0  0
   10.5440    4.8970   23.2730 C   0  0  0  0  0  0  0  0  0  0  0  0
   11.9630    5.2490   22.9390 C   0  0  0  0  0  0  0  0  0  0  0  0
   12.6280    3.9820   23.3800 C   0  0  0  0  0  0  0  0  0  0  0  0
   13.8280    3.7810   23.3690 O   0  0  0  0  0  0  0  0  0  0  0  0
   11.6320    3.1570   23.8680 N   0  0  0  0  0  0  0  0  0  0  0  0
   11.8630    1.7880   24.3350 C   0  0  0  0  0  0  0  0  0  0  0  0
   11.4320    0.7270   23.3470 C   0  0  0  0  0  0  0  0  0  0  0  0
   12.3860   -0.0420   22.6560 C   0  0  0  0  0  0  0  0  0  0  0  0
   11.9680   -1.0710   21.7990 C   0  0  0  0  0  0  0  0  0  0  0  0
   10.5960   -1.3040   21.6080 C   0  0  0  0  0  0  0  0  0  0  0  0
    9.6470   -0.4970   22.2480 C   0  0  0  0  0  0  0  0  0  0  0  0
    8.2800   -0.5990   21.9240 N   0  0  0  0  0  0  0  0  0  0  0  0
    7.7850   -0.2940   20.6870 C   0  0  0  0  0  0  0  0  0  0  0  0
    8.4830   -0.1160   19.7080 O   0  0  0  0  0  0  0  0  0  0  0  0
    6.4240   -0.1520   20.6530 N   0  0  0  0  0  0  0  0  0  0  0  0
    5.7190    0.4480   19.5810 C   0  0  0  0  0  0  0  0  0  0  0  0
    4.7930    1.4620   19.8560 C   0  0  0  0  0  0  0  0  0  0  0  0
    4.2400    2.1510   18.7690 C   0  0  0  0  0  0  0  0  0  0  0  0
    4.6370    1.8230   17.4640 C   0  0  0  0  0  0  0  0  0  0  0  0
    5.4900    0.8100   17.1880 N   0  0  0  0  0  0  0  0  0  0  0  0
    6.0230    0.1500   18.2340 C   0  0  0  0  0  0  0  0  0  0  0  0
   10.0640    0.5010   23.1340 C   0  0  0  0  0  0  0  0  0  0  0  0
   10.4030    3.7550   23.8340 N   0  0  0  0  0  0  0  0  0  0  0  0
  1  2  1  0
  2  3  1  0
  2 24  2  0
  3  4  1  0
  4  5  2  0
  4  6  1  0
  6 24  1  0
  6  7  1  0
  7  8  1  0
  8 23  1  0
  8  9  2  0
  9 10  1  0
 10 11  2  0
 11 12  1  0
 12 13  1  0
 12 23  2  0
 13 14  1  0
 14 15  2  0
 14 16  1  0
 16 17  1  0
 17 18  2  0
 17 22  1  0
 18 19  1  0
 19 20  2  0
 20 21  1  0
 21 22  2  0
M  END
