WPC2644_minimised.pdb
     RDKit          3D

 22 23  0  0  1  0  0  0  0  0999 V2000
   11.8280    6.0960   24.8510 C   0  0  0  0  0  0  0  0  0  0  0  0
   12.0250    4.7340   24.1650 C   0  0  1  0  0  0  0  0  0  0  0  0
   10.4040    4.0940   23.5740 S   0  0  0  0  0  0  0  0  0  0  0  0
   10.6340    2.3600   23.1920 C   0  0  0  0  0  0  0  0  0  0  0  0
   11.8790    1.6980   23.2010 C   0  0  0  0  0  0  0  0  0  0  0  0
   11.9630    0.3450   22.8280 C   0  0  0  0  0  0  0  0  0  0  0  0
   10.8030   -0.3630   22.4680 C   0  0  0  0  0  0  0  0  0  0  0  0
    9.5640    0.2930   22.4800 C   0  0  0  0  0  0  0  0  0  0  0  0
    8.3880   -0.3410   22.0380 N   0  0  0  0  0  0  0  0  0  0  0  0
    7.9090   -0.1550   20.7730 C   0  0  0  0  0  0  0  0  0  0  0  0
    8.5990    0.2090   19.8440 O   0  0  0  0  0  0  0  0  0  0  0  0
    6.5530   -0.2990   20.6620 N   0  0  0  0  0  0  0  0  0  0  0  0
    5.8210    0.2810   19.5990 C   0  0  0  0  0  0  0  0  0  0  0  0
    4.8820    1.2800   19.8860 C   0  0  0  0  0  0  0  0  0  0  0  0
    4.3290    1.9840   18.8080 C   0  0  0  0  0  0  0  0  0  0  0  0
    4.7380    1.6810   17.5010 C   0  0  0  0  0  0  0  0  0  0  0  0
    5.6100    0.6890   17.2140 N   0  0  0  0  0  0  0  0  0  0  0  0
    6.1500    0.0190   18.2520 C   0  0  0  0  0  0  0  0  0  0  0  0
    9.4860    1.6470   22.8320 C   0  0  0  0  0  0  0  0  0  0  0  0
   13.1160    4.7640   23.0910 C   0  0  0  0  0  0  0  0  0  0  0  0
   12.7370    4.9090   21.7950 N   0  0  0  0  0  0  0  0  0  0  0  0
   14.2900    4.6250   23.3590 O   0  0  0  0  0  0  0  0  0  0  0  0
  2  1  1  6
  2 20  1  0
  2  3  1  0
  3  4  1  0
  4 19  2  0
  4  5  1  0
  5  6  2  0
  6  7  1  0
  7  8  2  0
  8  9  1  0
  8 19  1  0
  9 10  1  0
 10 11  2  0
 10 12  1  0
 12 13  1  0
 13 14  2  0
 13 18  1  0
 14 15  1  0
 15 16  2  0
 16 17  1  0
 17 18  2  0
 20 21  1  0
 20 22  2  0
M  END
