WPC2444_minimised.pdb
     RDKit          3D

 21 22  0  0  1  0  0  0  0  0999 V2000
   12.8500    5.0920   22.9690 C   0  0  0  0  0  0  0  0  0  0  0  0
   11.4860    5.2660   23.6720 C   0  0  2  0  0  0  0  0  0  0  0  0
   11.0770    3.9890   24.4500 C   0  0  0  0  0  0  0  0  0  0  0  0
   10.9910    2.6860   23.6600 C   0  0  0  0  0  0  0  0  0  0  0  0
   12.1440    1.9350   23.3530 C   0  0  0  0  0  0  0  0  0  0  0  0
   12.0380    0.7080   22.6770 C   0  0  0  0  0  0  0  0  0  0  0  0
   10.7740    0.2120   22.3200 C   0  0  0  0  0  0  0  0  0  0  0  0
    9.6220    0.9440   22.6460 C   0  0  0  0  0  0  0  0  0  0  0  0
    8.3410    0.4830   22.2840 N   0  0  0  0  0  0  0  0  0  0  0  0
    7.9130    0.3510   20.9960 C   0  0  0  0  0  0  0  0  0  0  0  0
    8.6510    0.3750   20.0320 O   0  0  0  0  0  0  0  0  0  0  0  0
    6.5530    0.2700   20.8830 N   0  0  0  0  0  0  0  0  0  0  0  0
    5.8420    0.6560   19.7220 C   0  0  0  0  0  0  0  0  0  0  0  0
    4.8450    1.6290   19.8560 C   0  0  0  0  0  0  0  0  0  0  0  0
    4.2830    2.1500   18.6860 C   0  0  0  0  0  0  0  0  0  0  0  0
    4.7410    1.7020   17.4400 C   0  0  0  0  0  0  0  0  0  0  0  0
    5.6580    0.7170   17.2990 N   0  0  0  0  0  0  0  0  0  0  0  0
    6.2070    0.2210   18.4280 C   0  0  0  0  0  0  0  0  0  0  0  0
    9.7320    2.1770   23.3060 C   0  0  0  0  0  0  0  0  0  0  0  0
   10.4690    5.6860   22.6930 N   0  0  0  0  0  0  0  0  0  0  0  0
    9.2220    5.9600   23.3280 O   0  0  0  0  0  0  0  0  0  0  0  0
  2  1  1  6
  2 20  1  0
  2  3  1  0
  3  4  1  0
  4 19  2  0
  4  5  1  0
  5  6  2  0
  6  7  1  0
  7  8  2  0
  8  9  1  0
  8 19  1  0
  9 10  1  0
 10 11  2  0
 10 12  1  0
 12 13  1  0
 13 14  2  0
 13 18  1  0
 14 15  1  0
 15 16  2  0
 16 17  1  0
 17 18  2  0
 20 21  1  0
M  END
