WPC2497_minimised.pdb
     RDKit          3D

 21 22  0  0  0  0  0  0  0  0999 V2000
   14.5530    4.8580   22.8660 O   0  0  0  0  0  0  0  0  0  0  0  0
   13.3780    5.0640   22.6470 C   0  0  0  0  0  0  0  0  0  0  0  0
   12.8730    5.0210   21.4050 O   0  0  0  0  0  0  0  0  0  0  0  0
   12.4020    5.3860   23.7680 C   0  0  0  0  0  0  0  0  0  0  0  0
   10.7140    4.6780   23.5480 S   0  0  0  0  0  0  0  0  0  0  0  0
   10.8440    2.9010   23.3510 C   0  0  0  0  0  0  0  0  0  0  0  0
   12.0560    2.1820   23.3740 C   0  0  0  0  0  0  0  0  0  0  0  0
   12.0620    0.7910   23.1730 C   0  0  0  0  0  0  0  0  0  0  0  0
   10.8600    0.1090   22.9240 C   0  0  0  0  0  0  0  0  0  0  0  0
    9.6560    0.8260   22.8820 C   0  0  0  0  0  0  0  0  0  0  0  0
    8.4580    0.2080   22.4760 N   0  0  0  0  0  0  0  0  0  0  0  0
    8.0440    0.2370   21.1750 C   0  0  0  0  0  0  0  0  0  0  0  0
    8.7810    0.5090   20.2500 O   0  0  0  0  0  0  0  0  0  0  0  0
    6.7030    0.0280   21.0040 N   0  0  0  0  0  0  0  0  0  0  0  0
    6.0030    0.4630   19.8520 C   0  0  0  0  0  0  0  0  0  0  0  0
    4.9980    1.4260   20.0050 C   0  0  0  0  0  0  0  0  0  0  0  0
    4.4580    1.9950   18.8460 C   0  0  0  0  0  0  0  0  0  0  0  0
    4.9390    1.5980   17.5900 C   0  0  0  0  0  0  0  0  0  0  0  0
    5.8690    0.6290   17.4290 N   0  0  0  0  0  0  0  0  0  0  0  0
    6.4040    0.0950   18.5480 C   0  0  0  0  0  0  0  0  0  0  0  0
    9.6520    2.2100   23.1010 C   0  0  0  0  0  0  0  0  0  0  0  0
  1  2  2  0
  2  3  1  0
  2  4  1  0
  4  5  1  0
  5  6  1  0
  6 21  2  0
  6  7  1  0
  7  8  2  0
  8  9  1  0
  9 10  2  0
 10 11  1  0
 10 21  1  0
 11 12  1  0
 12 13  2  0
 12 14  1  0
 14 15  1  0
 15 16  2  0
 15 20  1  0
 16 17  1  0
 17 18  2  0
 18 19  1  0
 19 20  2  0
M  END
