WPC2860_minimised.pdb
     RDKit          3D

 22 23  0  0  1  0  0  0  0  0999 V2000
   15.8680    0.9320   19.6390 C   0  0  0  0  0  0  0  0  0  0  0  0
   14.7600    0.3780   20.3670 O   0  0  0  0  0  0  0  0  0  0  0  0
   14.5070    0.7900   21.6490 C   0  0  0  0  0  0  0  0  0  0  0  0
   15.2610    1.4980   22.2940 O   0  0  0  0  0  0  0  0  0  0  0  0
   13.2910    0.0700   22.2890 C   0  0  2  0  0  0  0  0  0  0  0  0
   12.9490   -1.2460   21.6780 N   0  0  0  0  0  0  0  0  0  0  0  0
   12.0720    0.9910   22.4330 C   0  0  0  0  0  0  0  0  0  0  0  0
   10.7570    0.5270   22.2070 C   0  0  0  0  0  0  0  0  0  0  0  0
    9.6540    1.3700   22.4100 C   0  0  0  0  0  0  0  0  0  0  0  0
   12.2450    2.3280   22.8560 C   0  0  0  0  0  0  0  0  0  0  0  0
   11.1420    3.1770   23.0330 C   0  0  0  0  0  0  0  0  0  0  0  0
    8.3480    0.9090   22.1490 N   0  0  0  0  0  0  0  0  0  0  0  0
    9.8440    2.6950   22.8180 C   0  0  0  0  0  0  0  0  0  0  0  0
    7.8850    0.5860   20.9060 C   0  0  0  0  0  0  0  0  0  0  0  0
    8.6030    0.4460   19.9360 O   0  0  0  0  0  0  0  0  0  0  0  0
    6.5210    0.5170   20.8360 N   0  0  0  0  0  0  0  0  0  0  0  0
    5.7760    0.8280   19.6740 C   0  0  0  0  0  0  0  0  0  0  0  0
    6.1160    0.3430   18.3900 C   0  0  0  0  0  0  0  0  0  0  0  0
    4.7600    1.7830   19.7920 C   0  0  0  0  0  0  0  0  0  0  0  0
    5.5270    0.7770   17.2560 N   0  0  0  0  0  0  0  0  0  0  0  0
    4.1580    2.2420   18.6170 C   0  0  0  0  0  0  0  0  0  0  0  0
    4.5960    1.7510   17.3810 C   0  0  0  0  0  0  0  0  0  0  0  0
  1  2  1  0
  2  3  1  0
  3  4  2  0
  3  5  1  0
  5  6  1  6
  5  7  1  0
  7 10  2  0
  7  8  1  0
  8  9  2  0
  9 12  1  0
  9 13  1  0
 10 11  1  0
 11 13  2  0
 12 14  1  0
 14 15  2  0
 14 16  1  0
 16 17  1  0
 17 18  2  0
 17 19  1  0
 18 20  1  0
 19 21  2  0
 20 22  2  0
 21 22  1  0
M  END
