WPC2907_minimised.pdb
     RDKit          3D

 22 23  0  0  1  0  0  0  0  0999 V2000
   11.2100   -2.1850   23.1880 C   0  0  0  0  0  0  0  0  0  0  0  0
   11.6860   -0.7360   22.9710 C   0  0  1  0  0  0  0  0  0  0  0  0
   12.3260   -0.6180   21.6640 N   0  0  0  0  0  0  0  0  0  0  0  0
   13.6470   -0.7110   21.4820 C   0  0  0  0  0  0  0  0  0  0  0  0
   14.1290   -1.1970   20.4400 N   0  0  0  0  0  0  0  0  0  0  0  0
   14.2070    0.3490   22.0460 N   0  0  0  0  0  0  0  0  0  0  0  0
   10.5970    0.3130   23.0990 C   0  0  0  0  0  0  0  0  0  0  0  0
    9.3300    0.1030   22.5340 C   0  0  0  0  0  0  0  0  0  0  0  0
    8.3410    1.0870   22.6350 C   0  0  0  0  0  0  0  0  0  0  0  0
   10.8700    1.5360   23.7410 C   0  0  0  0  0  0  0  0  0  0  0  0
    9.8800    2.5290   23.8320 C   0  0  0  0  0  0  0  0  0  0  0  0
    7.0980    0.8780   22.0170 N   0  0  0  0  0  0  0  0  0  0  0  0
    8.6100    2.3010   23.2810 C   0  0  0  0  0  0  0  0  0  0  0  0
    6.9310    0.6950   20.6760 C   0  0  0  0  0  0  0  0  0  0  0  0
    7.8440    0.5540   19.8820 O   0  0  0  0  0  0  0  0  0  0  0  0
    5.6120    0.7230   20.3250 N   0  0  0  0  0  0  0  0  0  0  0  0
    5.1220    1.1370   19.0690 C   0  0  0  0  0  0  0  0  0  0  0  0
    5.7420    0.7850   17.8510 C   0  0  0  0  0  0  0  0  0  0  0  0
    4.0760    2.0670   19.0570 C   0  0  0  0  0  0  0  0  0  0  0  0
    5.4110    1.3360   16.6670 N   0  0  0  0  0  0  0  0  0  0  0  0
    3.7320    2.6420   17.8310 C   0  0  0  0  0  0  0  0  0  0  0  0
    4.4540    2.2940   16.6830 C   0  0  0  0  0  0  0  0  0  0  0  0
  2  1  1  6
  2  3  1  0
  2  7  1  0
  3  4  1  0
  4  5  2  0
  4  6  1  0
  7 10  2  0
  7  8  1  0
  8  9  2  0
  9 12  1  0
  9 13  1  0
 10 11  1  0
 11 13  2  0
 12 14  1  0
 14 15  2  0
 14 16  1  0
 16 17  1  0
 17 18  2  0
 17 19  1  0
 18 20  1  0
 19 21  2  0
 20 22  2  0
 21 22  1  0
M  END
