WPC2802_minimised.pdb
     RDKit          3D

 18 19  0  0  0  0  0  0  0  0999 V2000
   13.3980   -1.3370   21.1920 C   0  0  0  0  0  0  0  0  0  0  0  0
   13.3350   -0.2230   21.9480 C   0  0  0  0  0  0  0  0  0  0  0  0
   12.0940    0.3260   22.5490 C   0  0  0  0  0  0  0  0  0  0  0  0
   10.8130   -0.1190   22.1660 C   0  0  0  0  0  0  0  0  0  0  0  0
    9.6620    0.4400   22.7470 C   0  0  0  0  0  0  0  0  0  0  0  0
   12.2000    1.3490   23.5060 C   0  0  0  0  0  0  0  0  0  0  0  0
   11.0500    1.9000   24.0940 C   0  0  0  0  0  0  0  0  0  0  0  0
    8.3720    0.0750   22.3060 N   0  0  0  0  0  0  0  0  0  0  0  0
    9.7820    1.4360   23.7240 C   0  0  0  0  0  0  0  0  0  0  0  0
    7.9490    0.1450   21.0070 C   0  0  0  0  0  0  0  0  0  0  0  0
    8.6890    0.3000   20.0560 O   0  0  0  0  0  0  0  0  0  0  0  0
    6.5880    0.0930   20.8780 N   0  0  0  0  0  0  0  0  0  0  0  0
    5.8870    0.5480   19.7360 C   0  0  0  0  0  0  0  0  0  0  0  0
    6.2490    0.1620   18.4270 C   0  0  0  0  0  0  0  0  0  0  0  0
    4.8970    1.5230   19.9070 C   0  0  0  0  0  0  0  0  0  0  0  0
    5.6990    0.6980   17.3170 N   0  0  0  0  0  0  0  0  0  0  0  0
    4.3360    2.0890   18.7560 C   0  0  0  0  0  0  0  0  0  0  0  0
    4.7850    1.6780   17.4930 C   0  0  0  0  0  0  0  0  0  0  0  0
  1  2  2  0
  2  3  1  0
  3  4  2  0
  3  6  1  0
  4  5  1  0
  5  9  2  0
  5  8  1  0
  6  7  2  0
  7  9  1  0
  8 10  1  0
 10 11  2  0
 10 12  1  0
 12 13  1  0
 13 14  2  0
 13 15  1  0
 14 16  1  0
 15 17  2  0
 16 18  2  0
 17 18  1  0
M  END
