WPC2834_minimised.pdb
     RDKit          3D

 19 21  0  0  0  0  0  0  0  0999 V2000
   13.3570   -1.3010   20.9740 C   0  0  0  0  0  0  0  0  0  0  0  0
   13.2380   -2.0310   22.2850 C   0  0  0  0  0  0  0  0  0  0  0  0
   13.3780   -0.5260   22.2680 C   0  0  0  0  0  0  0  0  0  0  0  0
   12.2470    0.3780   22.6710 C   0  0  0  0  0  0  0  0  0  0  0  0
   10.9070    0.0230   22.4270 C   0  0  0  0  0  0  0  0  0  0  0  0
    9.8630    0.8850   22.7900 C   0  0  0  0  0  0  0  0  0  0  0  0
   12.5240    1.6170   23.2760 C   0  0  0  0  0  0  0  0  0  0  0  0
   11.4790    2.4840   23.6370 C   0  0  0  0  0  0  0  0  0  0  0  0
    8.5300    0.5670   22.4560 N   0  0  0  0  0  0  0  0  0  0  0  0
   10.1470    2.1130   23.4020 C   0  0  0  0  0  0  0  0  0  0  0  0
    8.0770    0.4500   21.1710 C   0  0  0  0  0  0  0  0  0  0  0  0
    8.8070    0.4440   20.2010 O   0  0  0  0  0  0  0  0  0  0  0  0
    6.7140    0.3990   21.0630 N   0  0  0  0  0  0  0  0  0  0  0  0
    5.9960    0.7140   19.8830 C   0  0  0  0  0  0  0  0  0  0  0  0
    6.3610    0.2210   18.6080 C   0  0  0  0  0  0  0  0  0  0  0  0
    4.9710    1.6640   19.9730 C   0  0  0  0  0  0  0  0  0  0  0  0
    5.7870    0.6390   17.4580 N   0  0  0  0  0  0  0  0  0  0  0  0
    4.3870    2.1070   18.7820 C   0  0  0  0  0  0  0  0  0  0  0  0
    4.8480    1.6070   17.5570 C   0  0  0  0  0  0  0  0  0  0  0  0
  1  2  1  0
  1  3  1  0
  2  3  1  0
  3  4  1  0
  4  7  1  0
  4  5  2  0
  5  6  1  0
  6  9  1  0
  6 10  2  0
  7  8  2  0
  8 10  1  0
  9 11  1  0
 11 12  2  0
 11 13  1  0
 13 14  1  0
 14 15  2  0
 14 16  1  0
 15 17  1  0
 16 18  2  0
 17 19  2  0
 18 19  1  0
M  END
