WPC2914_minimised.pdb
     RDKit          3D

 21 23  0  0  1  0  0  0  0  0999 V2000
   14.1600   -0.9120   20.3100 N   0  0  0  0  0  0  0  0  0  0  0  0
   13.9940    0.0790   21.1310 N   0  0  0  0  0  0  0  0  0  0  0  0
   13.4910   -0.4880   22.3560 C   0  0  0  0  0  0  0  0  0  0  0  0
   12.1840    0.2030   22.7370 C   0  0  0  0  0  0  0  0  0  0  0  0
   10.9230   -0.2350   22.2790 C   0  0  0  0  0  0  0  0  0  0  0  0
    9.7520    0.4050   22.7210 C   0  0  0  0  0  0  0  0  0  0  0  0
   12.2520    1.3170   23.5920 C   0  0  0  0  0  0  0  0  0  0  0  0
   11.0830    1.9600   24.0250 C   0  0  0  0  0  0  0  0  0  0  0  0
   13.2810   -1.8910   22.0710 N   0  0  0  0  0  0  0  0  0  0  0  0
   13.7300   -2.0810   20.8680 N   0  0  0  0  0  0  0  0  0  0  0  0
    8.4810    0.0100   22.2590 N   0  0  0  0  0  0  0  0  0  0  0  0
    9.8320    1.4930   23.6020 C   0  0  0  0  0  0  0  0  0  0  0  0
    8.0640    0.1230   20.9640 C   0  0  0  0  0  0  0  0  0  0  0  0
    8.8050    0.3320   20.0270 O   0  0  0  0  0  0  0  0  0  0  0  0
    6.7050    0.0480   20.8310 N   0  0  0  0  0  0  0  0  0  0  0  0
    5.9870    0.5200   19.7070 C   0  0  0  0  0  0  0  0  0  0  0  0
    6.3250    0.1520   18.3870 C   0  0  0  0  0  0  0  0  0  0  0  0
    4.9890    1.4820   19.9090 C   0  0  0  0  0  0  0  0  0  0  0  0
    5.7330    0.6820   17.2960 N   0  0  0  0  0  0  0  0  0  0  0  0
    4.3900    2.0480   18.7770 C   0  0  0  0  0  0  0  0  0  0  0  0
    4.8080    1.6470   17.5010 C   0  0  0  0  0  0  0  0  0  0  0  0
  1  2  2  0
  1 10  1  0
  2  3  1  0
  3  9  1  0
  3  4  1  0
  4  7  1  0
  4  5  2  0
  5  6  1  0
  6 11  1  0
  6 12  2  0
  7  8  2  0
  8 12  1  0
  9 10  2  0
 11 13  1  0
 13 14  2  0
 13 15  1  0
 15 16  1  0
 16 17  2  0
 16 18  1  0
 17 19  1  0
 18 20  2  0
 19 21  2  0
 20 21  1  0
M  END
