WPC2900_minimised.pdb
     RDKit          3D

 20 21  0  0  0  0  0  0  0  0999 V2000
   15.0340    0.2800   20.5170 C   0  0  0  0  0  0  0  0  0  0  0  0
   14.0730   -0.7660   21.1220 C   0  0  0  0  0  0  0  0  0  0  0  0
   12.9670   -0.1610   22.0160 C   0  0  0  0  0  0  0  0  0  0  0  0
   12.0130   -1.2590   22.5380 C   0  0  0  0  0  0  0  0  0  0  0  0
   10.7840   -0.6840   23.2190 C   0  0  0  0  0  0  0  0  0  0  0  0
    9.6330   -0.4520   22.4520 C   0  0  0  0  0  0  0  0  0  0  0  0
    8.4720    0.0660   23.0460 C   0  0  0  0  0  0  0  0  0  0  0  0
   10.7640   -0.3950   24.5950 C   0  0  0  0  0  0  0  0  0  0  0  0
    9.6020    0.1090   25.1980 C   0  0  0  0  0  0  0  0  0  0  0  0
    7.2970    0.2880   22.2990 N   0  0  0  0  0  0  0  0  0  0  0  0
    8.4550    0.3370   24.4230 C   0  0  0  0  0  0  0  0  0  0  0  0
    7.1780    0.6160   20.9760 C   0  0  0  0  0  0  0  0  0  0  0  0
    8.0920    0.7510   20.1830 O   0  0  0  0  0  0  0  0  0  0  0  0
    5.8640    0.7560   20.6340 N   0  0  0  0  0  0  0  0  0  0  0  0
    5.3560    1.1990   19.3950 C   0  0  0  0  0  0  0  0  0  0  0  0
    5.8990    0.7820   18.1600 C   0  0  0  0  0  0  0  0  0  0  0  0
    4.3170    2.1350   19.4050 C   0  0  0  0  0  0  0  0  0  0  0  0
    5.4740    1.2510   16.9690 N   0  0  0  0  0  0  0  0  0  0  0  0
    3.8940    2.6420   18.1740 C   0  0  0  0  0  0  0  0  0  0  0  0
    4.5160    2.2090   16.9970 C   0  0  0  0  0  0  0  0  0  0  0  0
  1  2  1  0
  2  3  1  0
  3  4  1  0
  4  5  1  0
  5  8  2  0
  5  6  1  0
  6  7  2  0
  7 10  1  0
  7 11  1  0
  8  9  1  0
  9 11  2  0
 10 12  1  0
 12 13  2  0
 12 14  1  0
 14 15  1  0
 15 16  2  0
 15 17  1  0
 16 18  1  0
 17 19  2  0
 18 20  2  0
 19 20  1  0
M  END
