WPC2706_minimised.pdb
     RDKit          3D

 20 21  0  0  0  0  0  0  0  0999 V2000
   15.5050    0.0760   19.6760 C   0  0  0  0  0  0  0  0  0  0  0  0
   14.6460   -0.9890   20.1300 O   0  0  0  0  0  0  0  0  0  0  0  0
   13.4080   -0.4430   20.6230 N   0  0  0  0  0  0  0  0  0  0  0  0
   13.2960   -0.7020   22.0560 C   0  0  0  0  0  0  0  0  0  0  0  0
   12.0900    0.0160   22.6370 C   0  0  0  0  0  0  0  0  0  0  0  0
   10.7900   -0.3310   22.2260 C   0  0  0  0  0  0  0  0  0  0  0  0
    9.6790    0.3510   22.7470 C   0  0  0  0  0  0  0  0  0  0  0  0
   12.2670    1.0580   23.5640 C   0  0  0  0  0  0  0  0  0  0  0  0
   11.1540    1.7310   24.0920 C   0  0  0  0  0  0  0  0  0  0  0  0
    8.3760    0.0770   22.2870 N   0  0  0  0  0  0  0  0  0  0  0  0
    9.8600    1.3690   23.6920 C   0  0  0  0  0  0  0  0  0  0  0  0
    7.9660    0.2090   20.9890 C   0  0  0  0  0  0  0  0  0  0  0  0
    8.7140    0.3760   20.0470 O   0  0  0  0  0  0  0  0  0  0  0  0
    6.6040    0.1810   20.8530 N   0  0  0  0  0  0  0  0  0  0  0  0
    5.9000    0.6290   19.7090 C   0  0  0  0  0  0  0  0  0  0  0  0
    6.2620    0.2470   18.3980 C   0  0  0  0  0  0  0  0  0  0  0  0
    4.8820    1.5740   19.8840 C   0  0  0  0  0  0  0  0  0  0  0  0
    5.6670    0.7400   17.2910 N   0  0  0  0  0  0  0  0  0  0  0  0
    4.2890    2.1130   18.7360 C   0  0  0  0  0  0  0  0  0  0  0  0
    4.7250    1.6940   17.4710 C   0  0  0  0  0  0  0  0  0  0  0  0
  1  2  1  0
  2  3  1  0
  3  4  1  0
  4  5  1  0
  5  8  2  0
  5  6  1  0
  6  7  2  0
  7 10  1  0
  7 11  1  0
  8  9  1  0
  9 11  2  0
 10 12  1  0
 12 13  2  0
 12 14  1  0
 14 15  1  0
 15 16  2  0
 15 17  1  0
 16 18  1  0
 17 19  2  0
 18 20  2  0
 19 20  1  0
M  END
