WPC2284_minimised.pdb
     RDKit          3D

 21 22  0  0  1  0  0  0  0  0999 V2000
    8.6460    0.0730   19.7650 O   0  0  0  0  0  0  0  0  0  0  0  0
    7.9540   -0.1910   20.7270 C   0  0  0  0  0  0  0  0  0  0  0  0
    6.5900   -0.2510   20.6560 N   0  0  0  0  0  0  0  0  0  0  0  0
    5.8510    0.3190   19.5930 C   0  0  0  0  0  0  0  0  0  0  0  0
    4.9160    1.3210   19.8790 C   0  0  0  0  0  0  0  0  0  0  0  0
    4.3290    1.9940   18.8000 C   0  0  0  0  0  0  0  0  0  0  0  0
    4.7050    1.6620   17.4910 C   0  0  0  0  0  0  0  0  0  0  0  0
    5.5780    0.6700   17.2050 N   0  0  0  0  0  0  0  0  0  0  0  0
    6.1450    0.0250   18.2440 C   0  0  0  0  0  0  0  0  0  0  0  0
    8.4430   -0.3530   21.9910 N   0  0  0  0  0  0  0  0  0  0  0  0
    9.6610    0.2180   22.4040 C   0  0  0  0  0  0  0  0  0  0  0  0
   10.8970   -0.2480   21.9330 C   0  0  0  0  0  0  0  0  0  0  0  0
   12.0760    0.4380   22.2750 C   0  0  0  0  0  0  0  0  0  0  0  0
   12.0080    1.6010   23.0620 C   0  0  0  0  0  0  0  0  0  0  0  0
   10.7670    2.0720   23.5280 C   0  0  0  0  0  0  0  0  0  0  0  0
   10.6710    3.2950   24.4290 C   0  0  0  0  0  0  0  0  0  0  0  0
    9.9830    4.5630   23.8520 C   0  0  2  0  0  0  0  0  0  0  0  0
    8.9140    4.2800   22.9460 O   0  0  0  0  0  0  0  0  0  0  0  0
   10.9670    5.5780   23.2360 C   0  0  0  0  0  0  0  0  0  0  0  0
   11.8200    4.9970   22.2520 O   0  0  0  0  0  0  0  0  0  0  0  0
    9.6030    1.3550   23.2160 C   0  0  0  0  0  0  0  0  0  0  0  0
  1  2  2  0
  2 10  1  0
  2  3  1  0
  3  4  1  0
  4  5  2  0
  4  9  1  0
  5  6  1  0
  6  7  2  0
  7  8  1  0
  8  9  2  0
 10 11  1  0
 11 12  2  0
 11 21  1  0
 12 13  1  0
 13 14  2  0
 14 15  1  0
 15 16  1  0
 15 21  2  0
 16 17  1  0
 17 19  1  0
 17 18  1  6
 19 20  1  0
M  END
