WPC2912_minimised.pdb
     RDKit          3D

 21 23  0  0  0  0  0  0  0  0999 V2000
   13.5200   -1.8450   22.2650 C   0  0  0  0  0  0  0  0  0  0  0  0
   13.4050   -1.3730   20.8220 C   0  0  0  0  0  0  0  0  0  0  0  0
   12.9420   -0.0310   20.9700 O   0  0  0  0  0  0  0  0  0  0  0  0
   13.1100    0.4020   22.3310 C   0  0  0  0  0  0  0  0  0  0  0  0
   11.7560    0.4080   23.0450 C   0  0  0  0  0  0  0  0  0  0  0  0
   10.5480    0.2480   22.3390 C   0  0  0  0  0  0  0  0  0  0  0  0
    9.3130    0.2210   23.0100 C   0  0  0  0  0  0  0  0  0  0  0  0
   11.7090    0.5220   24.4430 C   0  0  0  0  0  0  0  0  0  0  0  0
   10.4830    0.4770   25.1250 C   0  0  0  0  0  0  0  0  0  0  0  0
   13.9220   -0.6300   22.9040 O   0  0  0  0  0  0  0  0  0  0  0  0
    8.0780    0.0800   22.3310 N   0  0  0  0  0  0  0  0  0  0  0  0
    9.2870    0.3330   24.4080 C   0  0  0  0  0  0  0  0  0  0  0  0
    7.7850    0.3130   21.0110 C   0  0  0  0  0  0  0  0  0  0  0  0
    8.5870    0.5680   20.1350 O   0  0  0  0  0  0  0  0  0  0  0  0
    6.4400    0.2600   20.7790 N   0  0  0  0  0  0  0  0  0  0  0  0
    5.7960    0.7290   19.6130 C   0  0  0  0  0  0  0  0  0  0  0  0
    6.2180    0.3570   18.3180 C   0  0  0  0  0  0  0  0  0  0  0  0
    4.7730    1.6750   19.7510 C   0  0  0  0  0  0  0  0  0  0  0  0
    5.6850    0.8730   17.1890 N   0  0  0  0  0  0  0  0  0  0  0  0
    4.2370    2.2260   18.5830 C   0  0  0  0  0  0  0  0  0  0  0  0
    4.7390    1.8280   17.3370 C   0  0  0  0  0  0  0  0  0  0  0  0
  1  2  1  0
  1 10  1  0
  2  3  1  0
  3  4  1  0
  4 10  1  0
  4  5  1  0
  5  8  1  0
  5  6  2  0
  6  7  1  0
  7 11  1  0
  7 12  2  0
  8  9  2  0
  9 12  1  0
 11 13  1  0
 13 14  2  0
 13 15  1  0
 15 16  1  0
 16 17  2  0
 16 18  1  0
 17 19  1  0
 18 20  2  0
 19 21  2  0
 20 21  1  0
M  END
