WPC2702_minimised.pdb
     RDKit          3D

 21 22  0  0  0  0  0  0  0  0999 V2000
   17.1720    1.2250   18.5490 N   0  0  0  0  0  0  0  0  0  0  0  0
   15.9030    1.5290   19.1820 C   0  0  0  0  0  0  0  0  0  0  0  0
   15.2730    0.3100   19.8660 C   0  0  0  0  0  0  0  0  0  0  0  0
   14.3950    0.7350   21.0710 C   0  0  0  0  0  0  0  0  0  0  0  0
   13.5900   -0.4270   21.6860 C   0  0  0  0  0  0  0  0  0  0  0  0
   12.3680    0.0750   22.4490 C   0  0  0  0  0  0  0  0  0  0  0  0
   11.0700   -0.2620   22.0180 C   0  0  0  0  0  0  0  0  0  0  0  0
    9.9390    0.2450   22.6800 C   0  0  0  0  0  0  0  0  0  0  0  0
   12.5190    0.9290   23.5570 C   0  0  0  0  0  0  0  0  0  0  0  0
   11.3870    1.4350   24.2170 C   0  0  0  0  0  0  0  0  0  0  0  0
    8.6290   -0.0210   22.2240 N   0  0  0  0  0  0  0  0  0  0  0  0
   10.1010    1.0840   23.7880 C   0  0  0  0  0  0  0  0  0  0  0  0
    8.1750    0.1700   20.9470 C   0  0  0  0  0  0  0  0  0  0  0  0
    8.8850    0.4040   19.9910 O   0  0  0  0  0  0  0  0  0  0  0  0
    6.8090    0.1160   20.8490 N   0  0  0  0  0  0  0  0  0  0  0  0
    6.0610    0.5630   19.7320 C   0  0  0  0  0  0  0  0  0  0  0  0
    6.3790    0.1870   18.4080 C   0  0  0  0  0  0  0  0  0  0  0  0
    5.0330    1.4900   19.9430 C   0  0  0  0  0  0  0  0  0  0  0  0
    5.7270    0.6620   17.3240 N   0  0  0  0  0  0  0  0  0  0  0  0
    4.3830    2.0140   18.8190 C   0  0  0  0  0  0  0  0  0  0  0  0
    4.7730    1.5960   17.5390 C   0  0  0  0  0  0  0  0  0  0  0  0
  1  2  1  0
  2  3  1  0
  3  4  1  0
  4  5  1  0
  5  6  1  0
  6  9  2  0
  6  7  1  0
  7  8  2  0
  8 11  1  0
  8 12  1  0
  9 10  1  0
 10 12  2  0
 11 13  1  0
 13 14  2  0
 13 15  1  0
 15 16  1  0
 16 17  2  0
 16 18  1  0
 17 19  1  0
 18 20  2  0
 19 21  2  0
 20 21  1  0
M  END
