WPC2921_minimised.pdb
     RDKit          3D

 20 21  0  0  0  0  0  0  0  0999 V2000
   14.9190    1.6790   21.6160 C   0  0  0  0  0  0  0  0  0  0  0  0
   13.9840    1.2090   22.4330 C   0  0  0  0  0  0  0  0  0  0  0  0
   13.3180   -0.3900   22.1880 S   0  0  2  0  0  0  0  0  0  0  0  0
   13.4460   -0.9420   20.5850 O   0  0  0  0  0  0  0  0  0  0  0  0
   11.7250   -0.3620   23.0060 C   0  0  0  0  0  0  0  0  0  0  0  0
   10.5350   -0.4400   22.2740 C   0  0  0  0  0  0  0  0  0  0  0  0
    9.3010   -0.3250   22.9400 C   0  0  0  0  0  0  0  0  0  0  0  0
   11.6860   -0.1680   24.3950 C   0  0  0  0  0  0  0  0  0  0  0  0
   10.4580   -0.0930   25.0690 C   0  0  0  0  0  0  0  0  0  0  0  0
    8.0670   -0.3260   22.2570 N   0  0  0  0  0  0  0  0  0  0  0  0
    9.2660   -0.1730   24.3360 C   0  0  0  0  0  0  0  0  0  0  0  0
    7.7910    0.1410   21.0010 C   0  0  0  0  0  0  0  0  0  0  0  0
    8.5900    0.5250   20.1720 O   0  0  0  0  0  0  0  0  0  0  0  0
    6.4440    0.1590   20.7750 N   0  0  0  0  0  0  0  0  0  0  0  0
    5.8160    0.6910   19.6310 C   0  0  0  0  0  0  0  0  0  0  0  0
    6.2290    0.3360   18.3290 C   0  0  0  0  0  0  0  0  0  0  0  0
    4.8090    1.6500   19.7920 C   0  0  0  0  0  0  0  0  0  0  0  0
    5.6830    0.8610   17.2110 N   0  0  0  0  0  0  0  0  0  0  0  0
    4.2720    2.2260   18.6350 C   0  0  0  0  0  0  0  0  0  0  0  0
    4.7450    1.8210   17.3770 C   0  0  0  0  0  0  0  0  0  0  0  0
  1  2  2  0
  3  2  1  0
  3  4  1  6
  3  5  1  0
  5  8  2  0
  5  6  1  0
  6  7  2  0
  7 10  1  0
  7 11  1  0
  8  9  1  0
  9 11  2  0
 10 12  1  0
 12 13  2  0
 12 14  1  0
 14 15  1  0
 15 16  2  0
 15 17  1  0
 16 18  1  0
 17 19  2  0
 18 20  2  0
 19 20  1  0
M  END
