WPC2853_minimised.pdb
     RDKit          3D

 19 20  0  0  0  0  0  0  0  0999 V2000
   14.2930   -1.2140   24.1160 N   0  0  0  0  0  0  0  0  0  0  0  0
   13.8770   -1.6240   22.7910 O   0  0  0  0  0  0  0  0  0  0  0  0
   13.4540   -0.5230   21.9600 C   0  0  0  0  0  0  0  0  0  0  0  0
   12.1930    0.1260   22.5140 C   0  0  0  0  0  0  0  0  0  0  0  0
   10.9160   -0.3250   22.1300 C   0  0  0  0  0  0  0  0  0  0  0  0
    9.7650    0.2920   22.6500 C   0  0  0  0  0  0  0  0  0  0  0  0
   12.3040    1.2120   23.3990 C   0  0  0  0  0  0  0  0  0  0  0  0
   11.1550    1.8280   23.9160 C   0  0  0  0  0  0  0  0  0  0  0  0
    8.4740   -0.0870   22.2290 N   0  0  0  0  0  0  0  0  0  0  0  0
    9.8860    1.3600   23.5500 C   0  0  0  0  0  0  0  0  0  0  0  0
    8.0220    0.0290   20.9440 C   0  0  0  0  0  0  0  0  0  0  0  0
    8.7440    0.2110   19.9850 O   0  0  0  0  0  0  0  0  0  0  0  0
    6.6580   -0.0070   20.8400 N   0  0  0  0  0  0  0  0  0  0  0  0
    5.9390    0.4800   19.7220 C   0  0  0  0  0  0  0  0  0  0  0  0
    6.2710    0.1150   18.3990 C   0  0  0  0  0  0  0  0  0  0  0  0
    4.9600    1.4590   19.9300 C   0  0  0  0  0  0  0  0  0  0  0  0
    5.7000    0.6730   17.3100 N   0  0  0  0  0  0  0  0  0  0  0  0
    4.3760    2.0470   18.8010 C   0  0  0  0  0  0  0  0  0  0  0  0
    4.7930    1.6540   17.5220 C   0  0  0  0  0  0  0  0  0  0  0  0
  1  2  1  0
  2  3  1  0
  3  4  1  0
  4  7  2  0
  4  5  1  0
  5  6  2  0
  6  9  1  0
  6 10  1  0
  7  8  1  0
  8 10  2  0
  9 11  1  0
 11 12  2  0
 11 13  1  0
 13 14  1  0
 14 15  2  0
 14 16  1  0
 15 17  1  0
 16 18  2  0
 17 19  2  0
 18 19  1  0
M  END
