WPC2382_minimised.pdb
     RDKit          3D

 24 26  0  0  0  0  0  0  0  0999 V2000
    8.7500    0.1280   20.0010 O   0  0  0  0  0  0  0  0  0  0  0  0
    8.1140   -0.2420   20.9670 C   0  0  0  0  0  0  0  0  0  0  0  0
    6.7450   -0.2190   20.9630 N   0  0  0  0  0  0  0  0  0  0  0  0
    5.9850    0.3200   19.8910 C   0  0  0  0  0  0  0  0  0  0  0  0
    5.0530    1.3340   20.1440 C   0  0  0  0  0  0  0  0  0  0  0  0
    4.4540    1.9600   19.0420 C   0  0  0  0  0  0  0  0  0  0  0  0
    4.8060    1.5660   17.7410 C   0  0  0  0  0  0  0  0  0  0  0  0
    5.6640    0.5530   17.4870 N   0  0  0  0  0  0  0  0  0  0  0  0
    6.2510   -0.0370   18.5480 C   0  0  0  0  0  0  0  0  0  0  0  0
    8.7060   -0.6810   22.1250 N   0  0  0  0  0  0  0  0  0  0  0  0
   10.1050   -0.6420   22.3060 C   0  0  0  0  0  0  0  0  0  0  0  0
   10.9270   -1.4900   21.5560 C   0  0  0  0  0  0  0  0  0  0  0  0
   12.3110   -1.2670   21.5010 C   0  0  0  0  0  0  0  0  0  0  0  0
   12.8720   -0.1830   22.1910 C   0  0  0  0  0  0  0  0  0  0  0  0
   12.0580    0.6500   22.9780 C   0  0  0  0  0  0  0  0  0  0  0  0
   12.6850    1.8060   23.7420 C   0  0  0  0  0  0  0  0  0  0  0  0
   12.2530    3.1630   23.3640 N   0  0  0  0  0  0  0  0  0  0  0  0
   10.5690    3.5430   23.2700 S   0  0  0  0  0  0  0  0  0  0  0  0
   10.9240    5.2570   23.3160 C   0  0  0  0  0  0  0  0  0  0  0  0
    9.6690    6.4430   23.2350 Cl  0  0  0  0  0  0  0  0  0  0  0  0
   12.2790    5.4470   23.3950 C   0  0  0  0  0  0  0  0  0  0  0  0
   13.0940    4.2520   23.3920 C   0  0  0  0  0  0  0  0  0  0  0  0
   14.3070    4.2440   23.4850 O   0  0  0  0  0  0  0  0  0  0  0  0
   10.6780    0.3800   23.0680 C   0  0  0  0  0  0  0  0  0  0  0  0
  1  2  2  0
  2  3  1  0
  2 10  1  0
  3  4  1  0
  4  5  2  0
  4  9  1  0
  5  6  1  0
  6  7  2  0
  7  8  1  0
  8  9  2  0
 10 11  1  0
 11 24  1  0
 11 12  2  0
 12 13  1  0
 13 14  2  0
 14 15  1  0
 15 16  1  0
 15 24  2  0
 16 17  1  0
 17 18  1  0
 17 22  1  0
 18 19  2  0
 19 20  1  0
 19 21  1  0
 21 22  1  0
 22 23  2  0
M  END
