WPC2569_minimised.pdb
     RDKit          3D

 22 23  0  0  0  0  0  0  0  0999 V2000
   12.5990    6.3840   24.2270 N   0  0  0  0  0  0  0  0  0  0  0  0
   11.4650    5.6770   23.9630 C   0  0  0  0  0  0  0  0  0  0  0  0
   10.3960    6.2310   24.0990 O   0  0  0  0  0  0  0  0  0  0  0  0
   11.6430    4.2090   23.5850 C   0  0  0  0  0  0  0  0  0  0  0  0
   10.7150    3.3050   24.4310 C   0  0  0  0  0  0  0  0  0  0  0  0
   11.2610    1.8760   24.6570 C   0  0  0  0  0  0  0  0  0  0  0  0
   11.0000    0.8890   23.5410 C   0  0  0  0  0  0  0  0  0  0  0  0
   12.0640    0.2320   22.8960 C   0  0  0  0  0  0  0  0  0  0  0  0
   11.8020   -0.7800   21.9600 C   0  0  0  0  0  0  0  0  0  0  0  0
   10.4740   -1.1110   21.6500 C   0  0  0  0  0  0  0  0  0  0  0  0
    9.4160   -0.4200   22.2550 C   0  0  0  0  0  0  0  0  0  0  0  0
    8.0880   -0.6140   21.8370 N   0  0  0  0  0  0  0  0  0  0  0  0
    7.6610   -0.3220   20.5750 C   0  0  0  0  0  0  0  0  0  0  0  0
    8.4020   -0.1600   19.6240 O   0  0  0  0  0  0  0  0  0  0  0  0
    6.3070   -0.1580   20.4960 N   0  0  0  0  0  0  0  0  0  0  0  0
    5.6450    0.4800   19.4230 C   0  0  0  0  0  0  0  0  0  0  0  0
    4.7180    1.4930   19.7010 C   0  0  0  0  0  0  0  0  0  0  0  0
    4.1910    2.2060   18.6180 C   0  0  0  0  0  0  0  0  0  0  0  0
    4.6200    1.9090   17.3160 C   0  0  0  0  0  0  0  0  0  0  0  0
    5.4830    0.9050   17.0380 N   0  0  0  0  0  0  0  0  0  0  0  0
    5.9850    0.2150   18.0800 C   0  0  0  0  0  0  0  0  0  0  0  0
    9.6770    0.5570   23.2170 C   0  0  0  0  0  0  0  0  0  0  0  0
  1  2  1  0
  2  3  2  0
  2  4  1  0
  4  5  1  0
  5  6  1  0
  6  7  1  0
  7 22  2  0
  7  8  1  0
  8  9  2  0
  9 10  1  0
 10 11  2  0
 11 12  1  0
 11 22  1  0
 12 13  1  0
 13 14  2  0
 13 15  1  0
 15 16  1  0
 16 17  2  0
 16 21  1  0
 17 18  1  0
 18 19  2  0
 19 20  1  0
 20 21  2  0
M  END
