WPC2778_minimised.pdb
     RDKit          3D

 19 20  0  0  0  0  0  0  0  0999 V2000
   15.3400    0.0250   19.6300 C   0  0  0  0  0  0  0  0  0  0  0  0
   13.8770   -0.7780   20.4210 S   0  0  0  0  0  0  0  0  0  0  0  0
   13.8390    0.1240   22.0260 C   0  0  0  0  0  0  0  0  0  0  0  0
   12.4550    0.4760   22.5640 C   0  0  0  0  0  0  0  0  0  0  0  0
   11.2490   -0.1050   22.1120 C   0  0  0  0  0  0  0  0  0  0  0  0
   10.0220    0.2800   22.6910 C   0  0  0  0  0  0  0  0  0  0  0  0
   12.4030    1.4510   23.5730 C   0  0  0  0  0  0  0  0  0  0  0  0
   11.1830    1.8290   24.1510 C   0  0  0  0  0  0  0  0  0  0  0  0
    8.7810   -0.2090   22.2280 N   0  0  0  0  0  0  0  0  0  0  0  0
    9.9950    1.2320   23.7180 C   0  0  0  0  0  0  0  0  0  0  0  0
    8.2720    0.0430   20.9850 C   0  0  0  0  0  0  0  0  0  0  0  0
    8.9370    0.4250   20.0470 O   0  0  0  0  0  0  0  0  0  0  0  0
    6.9140   -0.1040   20.8940 N   0  0  0  0  0  0  0  0  0  0  0  0
    6.1440    0.3840   19.8080 C   0  0  0  0  0  0  0  0  0  0  0  0
    6.4250    0.0180   18.4730 C   0  0  0  0  0  0  0  0  0  0  0  0
    5.1650    1.3560   20.0500 C   0  0  0  0  0  0  0  0  0  0  0  0
    5.7860    0.5470   17.4070 N   0  0  0  0  0  0  0  0  0  0  0  0
    4.5220    1.9270   18.9440 C   0  0  0  0  0  0  0  0  0  0  0  0
    4.8740    1.5150   17.6500 C   0  0  0  0  0  0  0  0  0  0  0  0
  1  2  1  0
  2  3  1  0
  3  4  1  0
  4  7  2  0
  4  5  1  0
  5  6  2  0
  6  9  1  0
  6 10  1  0
  7  8  1  0
  8 10  2  0
  9 11  1  0
 11 12  2  0
 11 13  1  0
 13 14  1  0
 14 15  2  0
 14 16  1  0
 15 17  1  0
 16 18  2  0
 17 19  2  0
 18 19  1  0
M  END
