WPC2819_minimised.pdb
     RDKit          3D

 19 20  0  0  0  0  0  0  0  0999 V2000
   14.8090   -0.1250   20.1350 C   0  0  0  0  0  0  0  0  0  0  0  0
   13.8340   -0.8400   20.6970 C   0  0  0  0  0  0  0  0  0  0  0  0
   13.4610   -0.7710   22.1560 C   0  0  0  0  0  0  0  0  0  0  0  0
   12.3510    0.2240   22.4370 C   0  0  0  0  0  0  0  0  0  0  0  0
   11.0080   -0.1320   22.2180 C   0  0  0  0  0  0  0  0  0  0  0  0
    9.9810    0.7840   22.4940 C   0  0  0  0  0  0  0  0  0  0  0  0
   12.6590    1.5080   22.9190 C   0  0  0  0  0  0  0  0  0  0  0  0
   11.6330    2.4310   23.1800 C   0  0  0  0  0  0  0  0  0  0  0  0
    8.6350    0.4590   22.2270 N   0  0  0  0  0  0  0  0  0  0  0  0
   10.2940    2.0650   22.9750 C   0  0  0  0  0  0  0  0  0  0  0  0
    8.1100    0.3640   20.9690 C   0  0  0  0  0  0  0  0  0  0  0  0
    8.7840    0.3500   19.9610 O   0  0  0  0  0  0  0  0  0  0  0  0
    6.7420    0.3550   20.9310 N   0  0  0  0  0  0  0  0  0  0  0  0
    5.9770    0.7050   19.7890 C   0  0  0  0  0  0  0  0  0  0  0  0
    6.2710    0.2230   18.4920 C   0  0  0  0  0  0  0  0  0  0  0  0
    4.9780    1.6750   19.9390 C   0  0  0  0  0  0  0  0  0  0  0  0
    5.6520    0.6670   17.3770 N   0  0  0  0  0  0  0  0  0  0  0  0
    4.3460    2.1460   18.7830 C   0  0  0  0  0  0  0  0  0  0  0  0
    4.7370    1.6510   17.5310 C   0  0  0  0  0  0  0  0  0  0  0  0
  1  2  2  0
  2  3  1  0
  3  4  1  0
  4  7  2  0
  4  5  1  0
  5  6  2  0
  6  9  1  0
  6 10  1  0
  7  8  1  0
  8 10  2  0
  9 11  1  0
 11 12  2  0
 11 13  1  0
 13 14  1  0
 14 15  2  0
 14 16  1  0
 15 17  1  0
 16 18  2  0
 17 19  2  0
 18 19  1  0
M  END
