WPC2884_minimised.pdb
     RDKit          3D

 21 22  0  0  0  0  0  0  0  0999 V2000
   16.5530    0.9370   19.6560 C   0  0  0  0  0  0  0  0  0  0  0  0
   15.1390    0.4890   19.3080 C   0  0  0  0  0  0  0  0  0  0  0  0
   14.4750   -0.5570   20.2280 C   0  0  0  0  0  0  0  0  0  0  0  0
   13.8920    0.0160   21.5450 C   0  0  0  0  0  0  0  0  0  0  0  0
   12.7740   -0.9000   22.1010 C   0  0  0  0  0  0  0  0  0  0  0  0
   11.6340   -0.1460   22.7700 C   0  0  0  0  0  0  0  0  0  0  0  0
   10.3310   -0.2620   22.2510 C   0  0  0  0  0  0  0  0  0  0  0  0
    9.2550    0.3950   22.8680 C   0  0  0  0  0  0  0  0  0  0  0  0
   11.8540    0.6590   23.9010 C   0  0  0  0  0  0  0  0  0  0  0  0
   10.7750    1.3100   24.5210 C   0  0  0  0  0  0  0  0  0  0  0  0
    7.9450    0.2990   22.3510 N   0  0  0  0  0  0  0  0  0  0  0  0
    9.4760    1.1690   24.0140 C   0  0  0  0  0  0  0  0  0  0  0  0
    7.5810    0.5070   21.0500 C   0  0  0  0  0  0  0  0  0  0  0  0
    8.3590    0.7030   20.1390 O   0  0  0  0  0  0  0  0  0  0  0  0
    6.2260    0.4870   20.8650 N   0  0  0  0  0  0  0  0  0  0  0  0
    5.5650    0.9000   19.6840 C   0  0  0  0  0  0  0  0  0  0  0  0
    5.9740    0.4700   18.4010 C   0  0  0  0  0  0  0  0  0  0  0  0
    4.5440    1.8520   19.7890 C   0  0  0  0  0  0  0  0  0  0  0  0
    5.4270    0.9270   17.2550 N   0  0  0  0  0  0  0  0  0  0  0  0
    4.0010    2.3540   18.6020 C   0  0  0  0  0  0  0  0  0  0  0  0
    4.4850    1.8930   17.3700 C   0  0  0  0  0  0  0  0  0  0  0  0
  1  2  1  0
  2  3  1  0
  3  4  1  0
  4  5  1  0
  5  6  1  0
  6  9  2  0
  6  7  1  0
  7  8  2  0
  8 11  1  0
  8 12  1  0
  9 10  1  0
 10 12  2  0
 11 13  1  0
 13 14  2  0
 13 15  1  0
 15 16  1  0
 16 17  2  0
 16 18  1  0
 17 19  1  0
 18 20  2  0
 19 21  2  0
 20 21  1  0
M  END
