WPC2686_minimised.pdb
     RDKit          3D

 24 26  0  0  1  0  0  0  0  0999 V2000
   16.0840    1.0740   16.3410 N   0  0  0  0  0  0  0  0  0  0  0  0
   15.8470    0.7110   17.6100 C   0  0  0  0  0  0  0  0  0  0  0  0
   15.0710   -0.2250   17.9710 N   0  0  0  0  0  0  0  0  0  0  0  0
   15.2840   -0.4750   19.4010 C   0  0  2  0  0  0  0  0  0  0  0  0
   13.9630   -0.2850   20.1900 C   0  0  0  0  0  0  0  0  0  0  0  0
   14.0620   -0.3570   21.7300 C   0  0  0  0  0  0  0  0  0  0  0  0
   12.8190    0.2100   22.4120 C   0  0  0  0  0  0  0  0  0  0  0  0
   11.5210   -0.2450   22.0910 C   0  0  0  0  0  0  0  0  0  0  0  0
   10.3930    0.3340   22.7010 C   0  0  0  0  0  0  0  0  0  0  0  0
   12.9640    1.2540   23.3440 C   0  0  0  0  0  0  0  0  0  0  0  0
   11.8360    1.8270   23.9510 C   0  0  0  0  0  0  0  0  0  0  0  0
   16.4250    0.5100   19.7370 C   0  0  0  0  0  0  0  0  0  0  0  0
   16.7210    1.1630   18.5030 O   0  0  0  0  0  0  0  0  0  0  0  0
    9.0790   -0.0220   22.3230 N   0  0  0  0  0  0  0  0  0  0  0  0
   10.5540    1.3570   23.6430 C   0  0  0  0  0  0  0  0  0  0  0  0
    8.5520    0.2000   21.0800 C   0  0  0  0  0  0  0  0  0  0  0  0
    9.2170    0.4980   20.1120 O   0  0  0  0  0  0  0  0  0  0  0  0
    7.1860    0.1070   21.0220 N   0  0  0  0  0  0  0  0  0  0  0  0
    6.3960    0.5230   19.9190 C   0  0  0  0  0  0  0  0  0  0  0  0
    6.6610    0.0970   18.5980 C   0  0  0  0  0  0  0  0  0  0  0  0
    5.3780    1.4610   20.1320 C   0  0  0  0  0  0  0  0  0  0  0  0
    5.9670    0.5310   17.5210 N   0  0  0  0  0  0  0  0  0  0  0  0
    4.6820    1.9390   19.0140 C   0  0  0  0  0  0  0  0  0  0  0  0
    5.0190    1.4700   17.7350 C   0  0  0  0  0  0  0  0  0  0  0  0
  1  2  1  0
  2  3  2  0
  2 13  1  0
  3  4  1  0
  4 12  1  0
  4  5  1  1
  5  6  1  0
  6  7  1  0
  7 10  1  0
  7  8  2  0
  8  9  1  0
  9 14  1  0
  9 15  2  0
 10 11  2  0
 11 15  1  0
 12 13  1  0
 14 16  1  0
 16 17  2  0
 16 18  1  0
 18 19  1  0
 19 20  2  0
 19 21  1  0
 20 22  1  0
 21 23  2  0
 22 24  2  0
 23 24  1  0
M  END
