WPC2427_minimised.pdb
     RDKit          3D

 24 26  0  0  0  0  0  0  0  0999 V2000
    8.5220    0.2570   19.8000 O   0  0  0  0  0  0  0  0  0  0  0  0
    7.8030   -0.0940   20.7150 C   0  0  0  0  0  0  0  0  0  0  0  0
    6.4460   -0.1840   20.5940 N   0  0  0  0  0  0  0  0  0  0  0  0
    5.7260    0.3660   19.5110 C   0  0  0  0  0  0  0  0  0  0  0  0
    4.7510    1.3360   19.7690 C   0  0  0  0  0  0  0  0  0  0  0  0
    4.1740    1.9830   18.6700 C   0  0  0  0  0  0  0  0  0  0  0  0
    4.5960    1.6540   17.3750 C   0  0  0  0  0  0  0  0  0  0  0  0
    5.5080    0.6900   17.1150 N   0  0  0  0  0  0  0  0  0  0  0  0
    6.0700    0.0750   18.1740 C   0  0  0  0  0  0  0  0  0  0  0  0
    8.2420   -0.3700   21.9770 N   0  0  0  0  0  0  0  0  0  0  0  0
    9.5220   -0.0370   22.4550 C   0  0  0  0  0  0  0  0  0  0  0  0
   10.6780   -0.5260   21.8270 C   0  0  0  0  0  0  0  0  0  0  0  0
   11.9440   -0.0980   22.2530 C   0  0  0  0  0  0  0  0  0  0  0  0
   12.0490    0.8110   23.3180 C   0  0  0  0  0  0  0  0  0  0  0  0
   10.8900    1.2800   23.9650 C   0  0  0  0  0  0  0  0  0  0  0  0
   11.0000    2.1930   25.1660 C   0  0  0  0  0  0  0  0  0  0  0  0
   10.5580    3.9530   24.8590 S   0  0  0  0  0  0  0  0  0  0  0  0
   11.7050    4.3570   23.5780 C   0  0  0  0  0  0  0  0  0  0  0  0
   12.9960    4.8230   23.8610 C   0  0  0  0  0  0  0  0  0  0  0  0
   13.9250    4.9720   22.8180 C   0  0  0  0  0  0  0  0  0  0  0  0
   13.5350    4.7690   21.4920 C   0  0  0  0  0  0  0  0  0  0  0  0
   12.2200    4.3780   21.2160 C   0  0  0  0  0  0  0  0  0  0  0  0
   11.3220    4.1270   22.2580 C   0  0  0  0  0  0  0  0  0  0  0  0
    9.6290    0.8550   23.5280 C   0  0  0  0  0  0  0  0  0  0  0  0
  1  2  2  0
  2  3  1  0
  2 10  1  0
  3  4  1  0
  4  5  2  0
  4  9  1  0
  5  6  1  0
  6  7  2  0
  7  8  1  0
  8  9  2  0
 10 11  1  0
 11 24  1  0
 11 12  2  0
 12 13  1  0
 13 14  2  0
 14 15  1  0
 15 16  1  0
 15 24  2  0
 16 17  1  0
 17 18  1  0
 18 19  2  0
 18 23  1  0
 19 20  1  0
 20 21  2  0
 21 22  1  0
 22 23  2  0
M  END
