WPC2239_minimised.pdb
     RDKit          3D

 23 24  0  0  1  0  0  0  0  0999 V2000
    8.6470    0.2310   20.0180 O   0  0  0  0  0  0  0  0  0  0  0  0
    7.8900   -0.1400   20.8930 C   0  0  0  0  0  0  0  0  0  0  0  0
    6.5320   -0.0730   20.7670 N   0  0  0  0  0  0  0  0  0  0  0  0
    5.8590    0.5070   19.6660 C   0  0  0  0  0  0  0  0  0  0  0  0
    4.8860    1.4860   19.8940 C   0  0  0  0  0  0  0  0  0  0  0  0
    4.3380    2.1290   18.7760 C   0  0  0  0  0  0  0  0  0  0  0  0
    4.7830    1.7860   17.4910 C   0  0  0  0  0  0  0  0  0  0  0  0
    5.6870    0.8070   17.2600 N   0  0  0  0  0  0  0  0  0  0  0  0
    6.2230    0.1980   18.3370 C   0  0  0  0  0  0  0  0  0  0  0  0
    8.3060   -0.6440   22.0940 N   0  0  0  0  0  0  0  0  0  0  0  0
    9.6590   -0.7020   22.4820 C   0  0  0  0  0  0  0  0  0  0  0  0
   10.2960   -1.9360   22.6840 C   0  0  0  0  0  0  0  0  0  0  0  0
   11.6770   -1.9700   22.9310 C   0  0  0  0  0  0  0  0  0  0  0  0
   12.4090   -0.7730   22.9710 C   0  0  0  0  0  0  0  0  0  0  0  0
   11.7610    0.4620   22.8550 C   0  0  0  0  0  0  0  0  0  0  0  0
   12.7460    1.9390   22.9990 S   0  0  0  0  0  0  0  0  0  0  0  0
   11.6130    3.3360   23.4320 C   0  0  0  0  0  0  0  0  0  0  0  0
   12.2600    4.7200   23.1830 C   0  0  2  0  0  0  0  0  0  0  0  0
   13.6850    4.6860   23.4260 O   0  0  0  0  0  0  0  0  0  0  0  0
   11.5750    5.8220   24.0160 C   0  0  0  0  0  0  0  0  0  0  0  0
   10.3840    5.8830   24.2520 O   0  0  0  0  0  0  0  0  0  0  0  0
   12.4400    6.7000   24.5500 O   0  0  0  0  0  0  0  0  0  0  0  0
   10.3850    0.4940   22.5850 C   0  0  0  0  0  0  0  0  0  0  0  0
  1  2  2  0
  2 10  1  0
  2  3  1  0
  3  4  1  0
  4  5  2  0
  4  9  1  0
  5  6  1  0
  6  7  2  0
  7  8  1  0
  8  9  2  0
 10 11  1  0
 11 12  2  0
 11 23  1  0
 12 13  1  0
 13 14  2  0
 14 15  1  0
 15 16  1  0
 15 23  2  0
 16 17  1  0
 17 18  1  0
 18 20  1  0
 18 19  1  1
 20 21  2  0
 20 22  1  0
M  END
