WPC2761_minimised.pdb
     RDKit          3D

 20 21  0  0  0  0  0  0  0  0999 V2000
   15.6840    0.7490   19.3830 N   0  0  0  0  0  0  0  0  0  0  0  0
   14.7360   -0.2140   19.9540 C   0  0  0  0  0  0  0  0  0  0  0  0
   13.9350    0.4020   21.1090 C   0  0  0  0  0  0  0  0  0  0  0  0
   13.1490   -0.9450   22.0630 S   0  0  0  0  0  0  0  0  0  0  0  0
   11.7380   -0.1440   22.7800 C   0  0  0  0  0  0  0  0  0  0  0  0
   10.4790   -0.3360   22.1970 C   0  0  0  0  0  0  0  0  0  0  0  0
    9.3460    0.2670   22.7640 C   0  0  0  0  0  0  0  0  0  0  0  0
   11.8710    0.6630   23.9210 C   0  0  0  0  0  0  0  0  0  0  0  0
   10.7340    1.2580   24.4910 C   0  0  0  0  0  0  0  0  0  0  0  0
    8.0710    0.1180   22.1870 N   0  0  0  0  0  0  0  0  0  0  0  0
    9.4720    1.0530   23.9160 C   0  0  0  0  0  0  0  0  0  0  0  0
    7.7610    0.3100   20.8710 C   0  0  0  0  0  0  0  0  0  0  0  0
    8.5680    0.4750   19.9780 O   0  0  0  0  0  0  0  0  0  0  0  0
    6.4090    0.3320   20.6740 N   0  0  0  0  0  0  0  0  0  0  0  0
    5.7530    0.8040   19.5160 C   0  0  0  0  0  0  0  0  0  0  0  0
    6.1610    0.4460   18.2120 C   0  0  0  0  0  0  0  0  0  0  0  0
    4.7190    1.7340   19.6760 C   0  0  0  0  0  0  0  0  0  0  0  0
    5.5930    0.9490   17.0960 N   0  0  0  0  0  0  0  0  0  0  0  0
    4.1540    2.2830   18.5200 C   0  0  0  0  0  0  0  0  0  0  0  0
    4.6350    1.8900   17.2640 C   0  0  0  0  0  0  0  0  0  0  0  0
  1  2  1  0
  2  3  1  0
  3  4  1  0
  4  5  1  0
  5  8  2  0
  5  6  1  0
  6  7  2  0
  7 10  1  0
  7 11  1  0
  8  9  1  0
  9 11  2  0
 10 12  1  0
 12 13  2  0
 12 14  1  0
 14 15  1  0
 15 16  2  0
 15 17  1  0
 16 18  1  0
 17 19  2  0
 18 20  2  0
 19 20  1  0
M  END
