WPC2051_minimised.pdb
     RDKit          3D

 24 25  0  0  0  0  0  0  0  0999 V2000
    9.7060    6.0210   23.0070 C   0  0  0  0  0  0  0  0  0  0  0  0
   10.7210    5.9240   24.1580 C   0  0  0  0  0  0  0  0  0  0  0  0
   11.4910    4.7360   23.9990 O   0  0  0  0  0  0  0  0  0  0  0  0
   12.5480    4.6980   23.1380 C   0  0  0  0  0  0  0  0  0  0  0  0
   13.0780    5.6710   22.6380 O   0  0  0  0  0  0  0  0  0  0  0  0
   13.1670    3.3580   23.1270 C   0  0  0  0  0  0  0  0  0  0  0  0
   12.6010    2.2890   23.7290 C   0  0  0  0  0  0  0  0  0  0  0  0
   13.2100    0.9140   23.7670 C   0  0  0  0  0  0  0  0  0  0  0  0
   12.4040   -0.0560   22.9370 C   0  0  0  0  0  0  0  0  0  0  0  0
   13.0620   -0.8710   22.0040 C   0  0  0  0  0  0  0  0  0  0  0  0
   12.3280   -1.7540   21.2110 C   0  0  0  0  0  0  0  0  0  0  0  0
   10.9360   -1.8360   21.3600 C   0  0  0  0  0  0  0  0  0  0  0  0
   10.2720   -1.0000   22.2580 C   0  0  0  0  0  0  0  0  0  0  0  0
    8.8710   -0.9010   22.1650 N   0  0  0  0  0  0  0  0  0  0  0  0
    8.2770   -0.1510   21.1870 C   0  0  0  0  0  0  0  0  0  0  0  0
    8.8950    0.5970   20.4550 O   0  0  0  0  0  0  0  0  0  0  0  0
    6.9310   -0.3430   21.0470 N   0  0  0  0  0  0  0  0  0  0  0  0
    6.1770    0.2310   19.9900 C   0  0  0  0  0  0  0  0  0  0  0  0
    5.2380    1.2350   20.2550 C   0  0  0  0  0  0  0  0  0  0  0  0
    4.6280    1.8620   19.1580 C   0  0  0  0  0  0  0  0  0  0  0  0
    4.9740    1.4760   17.8530 C   0  0  0  0  0  0  0  0  0  0  0  0
    5.8520    0.4820   17.5890 N   0  0  0  0  0  0  0  0  0  0  0  0
    6.4600   -0.0970   18.6450 C   0  0  0  0  0  0  0  0  0  0  0  0
   11.0030   -0.1230   23.0630 C   0  0  0  0  0  0  0  0  0  0  0  0
  1  2  1  0
  2  3  1  0
  3  4  1  0
  4  5  2  0
  4  6  1  0
  6  7  2  0
  7  8  1  0
  8  9  1  0
  9 24  2  0
  9 10  1  0
 10 11  2  0
 11 12  1  0
 12 13  2  0
 13 14  1  0
 13 24  1  0
 14 15  1  0
 15 16  2  0
 15 17  1  0
 17 18  1  0
 18 19  2  0
 18 23  1  0
 19 20  1  0
 20 21  2  0
 21 22  1  0
 22 23  2  0
M  END
