WPC2484_minimised.pdb
     RDKit          3D

 21 22  0  0  0  0  0  0  0  0999 V2000
   13.7530    5.3930   21.4140 C   0  0  0  0  0  0  0  0  0  0  0  0
   13.4020    4.9540   22.8230 C   0  0  0  0  0  0  0  0  0  0  0  0
   14.2500    4.4860   23.5550 O   0  0  0  0  0  0  0  0  0  0  0  0
   11.9570    5.1790   23.2630 C   0  0  0  0  0  0  0  0  0  0  0  0
   11.3710    3.9880   24.5430 S   0  0  0  0  0  0  0  0  0  0  0  0
   11.2600    2.4130   23.7160 C   0  0  0  0  0  0  0  0  0  0  0  0
   12.4070    1.6770   23.3700 C   0  0  0  0  0  0  0  0  0  0  0  0
   12.2800    0.4360   22.7240 C   0  0  0  0  0  0  0  0  0  0  0  0
   11.0060   -0.0720   22.4200 C   0  0  0  0  0  0  0  0  0  0  0  0
    9.8610    0.6590   22.7750 C   0  0  0  0  0  0  0  0  0  0  0  0
    8.5760    0.2150   22.4030 N   0  0  0  0  0  0  0  0  0  0  0  0
    8.1050    0.2850   21.1230 C   0  0  0  0  0  0  0  0  0  0  0  0
    8.8110    0.5220   20.1660 O   0  0  0  0  0  0  0  0  0  0  0  0
    6.7500    0.1350   21.0050 N   0  0  0  0  0  0  0  0  0  0  0  0
    6.0220    0.5460   19.8610 C   0  0  0  0  0  0  0  0  0  0  0  0
    5.0240    1.5150   20.0150 C   0  0  0  0  0  0  0  0  0  0  0  0
    4.4510    2.0520   18.8550 C   0  0  0  0  0  0  0  0  0  0  0  0
    4.8940    1.6160   17.5990 C   0  0  0  0  0  0  0  0  0  0  0  0
    5.8130    0.6380   17.4370 N   0  0  0  0  0  0  0  0  0  0  0  0
    6.3780    0.1350   18.5560 C   0  0  0  0  0  0  0  0  0  0  0  0
    9.9900    1.8940   23.4250 C   0  0  0  0  0  0  0  0  0  0  0  0
  1  2  1  0
  2  3  2  0
  2  4  1  0
  4  5  1  0
  5  6  1  0
  6 21  2  0
  6  7  1  0
  7  8  2  0
  8  9  1  0
  9 10  2  0
 10 11  1  0
 10 21  1  0
 11 12  1  0
 12 13  2  0
 12 14  1  0
 14 15  1  0
 15 16  2  0
 15 20  1  0
 16 17  1  0
 17 18  2  0
 18 19  1  0
 19 20  2  0
M  END
