WPC2920_minimised.pdb
     RDKit          3D

 18 19  0  0  0  0  0  0  0  0999 V2000
   13.2800   -1.1170   21.7090 C   0  0  0  0  0  0  0  0  0  0  0  0
   13.8110    0.3290   22.7160 S   0  0  0  0  0  0  0  0  0  0  0  0
   12.3290    1.2990   22.9360 C   0  0  0  0  0  0  0  0  0  0  0  0
   11.0480    0.7280   22.8450 C   0  0  0  0  0  0  0  0  0  0  0  0
    9.9080    1.5390   22.9350 C   0  0  0  0  0  0  0  0  0  0  0  0
   12.4560    2.6830   23.1330 C   0  0  0  0  0  0  0  0  0  0  0  0
   11.3160    3.4950   23.2440 C   0  0  0  0  0  0  0  0  0  0  0  0
    8.6360    1.0000   22.6610 N   0  0  0  0  0  0  0  0  0  0  0  0
   10.0400    2.9200   23.1460 C   0  0  0  0  0  0  0  0  0  0  0  0
    8.2100    0.7330   21.3890 C   0  0  0  0  0  0  0  0  0  0  0  0
    8.9510    0.7220   20.4270 O   0  0  0  0  0  0  0  0  0  0  0  0
    6.8580    0.5430   21.2690 N   0  0  0  0  0  0  0  0  0  0  0  0
    6.1390    0.7570   20.0660 C   0  0  0  0  0  0  0  0  0  0  0  0
    6.5430    0.2190   18.8220 C   0  0  0  0  0  0  0  0  0  0  0  0
    5.0740    1.6650   20.0950 C   0  0  0  0  0  0  0  0  0  0  0  0
    5.9570    0.5400   17.6460 N   0  0  0  0  0  0  0  0  0  0  0  0
    4.4890    2.0240   18.8770 C   0  0  0  0  0  0  0  0  0  0  0  0
    4.9790    1.4730   17.6860 C   0  0  0  0  0  0  0  0  0  0  0  0
  1  2  1  0
  2  3  1  0
  3  4  2  0
  3  6  1  0
  4  5  1  0
  5  9  2  0
  5  8  1  0
  6  7  2  0
  7  9  1  0
  8 10  1  0
 10 11  2  0
 10 12  1  0
 12 13  1  0
 13 14  2  0
 13 15  1  0
 14 16  1  0
 15 17  2  0
 16 18  2  0
 17 18  1  0
M  END
