WPC2788_minimised.pdb
     RDKit          3D

 22 23  0  0  1  0  0  0  0  0999 V2000
   15.9170    0.7090   19.8720 C   0  0  0  0  0  0  0  0  0  0  0  0
   14.7320   -0.0610   19.3390 C   0  0  0  0  0  0  0  0  0  0  0  0
   14.4900   -0.0830   18.1550 O   0  0  0  0  0  0  0  0  0  0  0  0
   13.9150   -0.7800   20.1740 N   0  0  0  0  0  0  0  0  0  0  0  0
   13.8970   -0.8090   21.6330 C   0  0  2  0  0  0  0  0  0  0  0  0
   13.7210   -2.2770   22.0410 C   0  0  0  0  0  0  0  0  0  0  0  0
   12.8180    0.0990   22.2240 C   0  0  0  0  0  0  0  0  0  0  0  0
   11.4470   -0.2190   22.1190 C   0  0  0  0  0  0  0  0  0  0  0  0
   10.4690    0.6180   22.6830 C   0  0  0  0  0  0  0  0  0  0  0  0
   13.1890    1.2950   22.8690 C   0  0  0  0  0  0  0  0  0  0  0  0
   12.2090    2.1480   23.4040 C   0  0  0  0  0  0  0  0  0  0  0  0
    9.0960    0.3350   22.4960 N   0  0  0  0  0  0  0  0  0  0  0  0
   10.8520    1.8020   23.3260 C   0  0  0  0  0  0  0  0  0  0  0  0
    8.4150    0.6950   21.3650 C   0  0  0  0  0  0  0  0  0  0  0  0
    8.9450    1.2990   20.4610 O   0  0  0  0  0  0  0  0  0  0  0  0
    7.1010    0.3090   21.2800 N   0  0  0  0  0  0  0  0  0  0  0  0
    6.2870    0.5780   20.1450 C   0  0  0  0  0  0  0  0  0  0  0  0
    6.6430    0.1110   18.8570 C   0  0  0  0  0  0  0  0  0  0  0  0
    5.1850    1.4330   20.2670 C   0  0  0  0  0  0  0  0  0  0  0  0
    5.9590    0.4160   17.7320 N   0  0  0  0  0  0  0  0  0  0  0  0
    4.5030    1.7940   19.0960 C   0  0  0  0  0  0  0  0  0  0  0  0
    4.9300    1.2840   17.8600 C   0  0  0  0  0  0  0  0  0  0  0  0
  1  2  1  0
  2  3  2  0
  2  4  1  0
  4  5  1  0
  5  6  1  6
  5  7  1  0
  7 10  2  0
  7  8  1  0
  8  9  2  0
  9 12  1  0
  9 13  1  0
 10 11  1  0
 11 13  2  0
 12 14  1  0
 14 15  2  0
 14 16  1  0
 16 17  1  0
 17 18  2  0
 17 19  1  0
 18 20  1  0
 19 21  2  0
 20 22  2  0
 21 22  1  0
M  END
