WPC2057_minimised.pdb
     RDKit          3D

 23 24  0  0  0  0  0  0  0  0999 V2000
   12.9370    4.6930   20.8640 C   0  0  0  0  0  0  0  0  0  0  0  0
   12.1410    3.9600   21.8540 N   0  0  0  0  0  0  0  0  0  0  0  0
   12.4070    4.0090   23.1000 C   0  0  0  0  0  0  0  0  0  0  0  0
   13.5320    4.6070   23.6380 N   0  0  0  0  0  0  0  0  0  0  0  0
   14.8810    4.4280   23.0790 C   0  0  0  0  0  0  0  0  0  0  0  0
   11.3460    3.5490   24.3790 S   0  0  0  0  0  0  0  0  0  0  0  0
   11.7820    1.7750   24.6080 C   0  0  0  0  0  0  0  0  0  0  0  0
   11.3650    0.8570   23.4830 C   0  0  0  0  0  0  0  0  0  0  0  0
   12.3290    0.1080   22.7880 C   0  0  0  0  0  0  0  0  0  0  0  0
   11.9300   -0.8530   21.8470 C   0  0  0  0  0  0  0  0  0  0  0  0
   10.5650   -1.0440   21.5890 C   0  0  0  0  0  0  0  0  0  0  0  0
    9.6040   -0.2560   22.2390 C   0  0  0  0  0  0  0  0  0  0  0  0
    8.2400   -0.3500   21.8970 N   0  0  0  0  0  0  0  0  0  0  0  0
    7.7560   -0.2180   20.6260 C   0  0  0  0  0  0  0  0  0  0  0  0
    8.4460   -0.2320   19.6280 O   0  0  0  0  0  0  0  0  0  0  0  0
    6.4050   -0.0130   20.5900 N   0  0  0  0  0  0  0  0  0  0  0  0
    5.7020    0.5330   19.4900 C   0  0  0  0  0  0  0  0  0  0  0  0
    4.7610    1.5410   19.7350 C   0  0  0  0  0  0  0  0  0  0  0  0
    4.1820    2.1730   18.6300 C   0  0  0  0  0  0  0  0  0  0  0  0
    4.5790    1.8070   17.3370 C   0  0  0  0  0  0  0  0  0  0  0  0
    5.4460    0.7990   17.0890 N   0  0  0  0  0  0  0  0  0  0  0  0
    6.0000    0.1860   18.1540 C   0  0  0  0  0  0  0  0  0  0  0  0
   10.0030    0.6820   23.1990 C   0  0  0  0  0  0  0  0  0  0  0  0
  1  2  1  0
  2  3  2  0
  3  4  1  0
  3  6  1  0
  4  5  1  0
  6  7  1  0
  7  8  1  0
  8 23  2  0
  8  9  1  0
  9 10  2  0
 10 11  1  0
 11 12  2  0
 12 13  1  0
 12 23  1  0
 13 14  1  0
 14 15  2  0
 14 16  1  0
 16 17  1  0
 17 18  2  0
 17 22  1  0
 18 19  1  0
 19 20  2  0
 20 21  1  0
 21 22  2  0
M  END
