WPC2141_minimised.pdb
     RDKit          3D

 23 24  0  0  1  0  0  0  0  0999 V2000
    8.9720    5.7260   22.6130 C   0  0  0  0  0  0  0  0  0  0  0  0
    9.4120    4.3810   23.0220 N   0  0  0  0  0  0  0  0  0  0  0  0
   10.5850    4.3300   23.9450 C   0  0  1  0  0  0  0  0  0  0  0  0
   10.7400    2.9230   24.5600 C   0  0  0  0  0  0  0  0  0  0  0  0
   10.8110    1.7650   23.5820 C   0  0  0  0  0  0  0  0  0  0  0  0
   12.0410    1.2550   23.1290 C   0  0  0  0  0  0  0  0  0  0  0  0
   12.0670    0.1330   22.2810 C   0  0  0  0  0  0  0  0  0  0  0  0
   10.8640   -0.4770   21.8850 C   0  0  0  0  0  0  0  0  0  0  0  0
    9.6400    0.0350   22.3400 C   0  0  0  0  0  0  0  0  0  0  0  0
    8.4070   -0.4810   21.8980 N   0  0  0  0  0  0  0  0  0  0  0  0
    7.9060   -0.2240   20.6560 C   0  0  0  0  0  0  0  0  0  0  0  0
    8.5860    0.1350   19.7170 O   0  0  0  0  0  0  0  0  0  0  0  0
    6.5420   -0.3020   20.5830 N   0  0  0  0  0  0  0  0  0  0  0  0
    5.8010    0.3030   19.5410 C   0  0  0  0  0  0  0  0  0  0  0  0
    4.8710    1.3030   19.8520 C   0  0  0  0  0  0  0  0  0  0  0  0
    4.3020    2.0170   18.7890 C   0  0  0  0  0  0  0  0  0  0  0  0
    4.6880    1.7240   17.4730 C   0  0  0  0  0  0  0  0  0  0  0  0
    5.5540    0.7320   17.1640 N   0  0  0  0  0  0  0  0  0  0  0  0
    6.1040    0.0490   18.1870 C   0  0  0  0  0  0  0  0  0  0  0  0
    9.6170    1.1470   23.1870 C   0  0  0  0  0  0  0  0  0  0  0  0
   11.9600    4.8370   23.4380 C   0  0  0  0  0  0  0  0  0  0  0  0
   12.8600    5.1280   24.2050 O   0  0  0  0  0  0  0  0  0  0  0  0
   12.1100    5.0020   22.1120 O   0  0  0  0  0  0  0  0  0  0  0  0
  1  2  1  0
  2  3  1  0
  3 21  1  0
  3  4  1  6
  4  5  1  0
  5 20  2  0
  5  6  1  0
  6  7  2  0
  7  8  1  0
  8  9  2  0
  9 10  1  0
  9 20  1  0
 10 11  1  0
 11 12  2  0
 11 13  1  0
 13 14  1  0
 14 15  2  0
 14 19  1  0
 15 16  1  0
 16 17  2  0
 17 18  1  0
 18 19  2  0
 21 22  2  0
 21 23  1  0
M  END
