WPC2224_minimised.pdb
     RDKit          3D

 24 26  0  0  0  0  0  0  0  0999 V2000
   13.8450    4.7540   23.7350 N   0  0  0  0  0  0  0  0  0  0  0  0
   12.4670    4.7460   23.7200 C   0  0  0  0  0  0  0  0  0  0  0  0
   11.7900    5.9600   23.8680 C   0  0  0  0  0  0  0  0  0  0  0  0
   10.4040    6.0250   23.6610 C   0  0  0  0  0  0  0  0  0  0  0  0
    9.7060    4.8620   23.3180 C   0  0  0  0  0  0  0  0  0  0  0  0
   10.3790    3.6320   23.2370 C   0  0  0  0  0  0  0  0  0  0  0  0
   11.7620    3.5480   23.5030 C   0  0  0  0  0  0  0  0  0  0  0  0
   12.6790    2.0020   23.6890 S   0  0  0  0  0  0  0  0  0  0  0  0
   11.8490    0.6390   22.9140 C   0  0  0  0  0  0  0  0  0  0  0  0
   12.6320   -0.1990   22.1070 C   0  0  0  0  0  0  0  0  0  0  0  0
   12.0520   -1.2940   21.4580 C   0  0  0  0  0  0  0  0  0  0  0  0
   10.6710   -1.5110   21.5680 C   0  0  0  0  0  0  0  0  0  0  0  0
    9.8850   -0.6590   22.3540 C   0  0  0  0  0  0  0  0  0  0  0  0
    8.4910   -0.6400   22.1560 N   0  0  0  0  0  0  0  0  0  0  0  0
    7.9490   -0.1820   20.9810 C   0  0  0  0  0  0  0  0  0  0  0  0
    8.6190    0.1570   20.0250 O   0  0  0  0  0  0  0  0  0  0  0  0
    6.5830   -0.1100   20.9500 N   0  0  0  0  0  0  0  0  0  0  0  0
    5.8560    0.4300   19.8570 C   0  0  0  0  0  0  0  0  0  0  0  0
    4.9220    1.4500   20.0820 C   0  0  0  0  0  0  0  0  0  0  0  0
    4.3510    2.0680   18.9610 C   0  0  0  0  0  0  0  0  0  0  0  0
    4.7330    1.6630   17.6720 C   0  0  0  0  0  0  0  0  0  0  0  0
    5.5920    0.6440   17.4450 N   0  0  0  0  0  0  0  0  0  0  0  0
    6.1510    0.0600   18.5240 C   0  0  0  0  0  0  0  0  0  0  0  0
   10.4890    0.3520   23.1090 C   0  0  0  0  0  0  0  0  0  0  0  0
  1  2  1  0
  2  3  2  0
  2  7  1  0
  3  4  1  0
  4  5  2  0
  5  6  1  0
  6  7  2  0
  7  8  1  0
  8  9  1  0
  9 24  1  0
  9 10  2  0
 10 11  1  0
 11 12  2  0
 12 13  1  0
 13 14  1  0
 13 24  2  0
 14 15  1  0
 15 16  2  0
 15 17  1  0
 17 18  1  0
 18 19  2  0
 18 23  1  0
 19 20  1  0
 20 21  2  0
 21 22  1  0
 22 23  2  0
M  END
