WPC2571_minimised.pdb
     RDKit          3D

 24 26  0  0  0  0  0  0  0  0999 V2000
    8.5380    0.2800   19.8500 O   0  0  0  0  0  0  0  0  0  0  0  0
    7.8450   -0.1610   20.7460 C   0  0  0  0  0  0  0  0  0  0  0  0
    6.4850   -0.2530   20.6430 N   0  0  0  0  0  0  0  0  0  0  0  0
    5.7520    0.3120   19.5750 C   0  0  0  0  0  0  0  0  0  0  0  0
    4.7750    1.2760   19.8480 C   0  0  0  0  0  0  0  0  0  0  0  0
    4.1910    1.9350   18.7590 C   0  0  0  0  0  0  0  0  0  0  0  0
    4.6050    1.6200   17.4560 C   0  0  0  0  0  0  0  0  0  0  0  0
    5.5170    0.6610   17.1820 N   0  0  0  0  0  0  0  0  0  0  0  0
    6.0890    0.0390   18.2320 C   0  0  0  0  0  0  0  0  0  0  0  0
    8.3290   -0.5530   21.9610 N   0  0  0  0  0  0  0  0  0  0  0  0
    9.6420   -0.2840   22.3870 C   0  0  0  0  0  0  0  0  0  0  0  0
   10.7400   -0.8460   21.7210 C   0  0  0  0  0  0  0  0  0  0  0  0
   12.0440   -0.4510   22.0540 C   0  0  0  0  0  0  0  0  0  0  0  0
   12.2440    0.5030   23.0630 C   0  0  0  0  0  0  0  0  0  0  0  0
   11.1420    1.0380   23.7570 C   0  0  0  0  0  0  0  0  0  0  0  0
   11.3520    2.0200   24.8900 C   0  0  0  0  0  0  0  0  0  0  0  0
   10.9690    3.4820   24.5710 C   0  0  0  0  0  0  0  0  0  0  0  0
   11.8260    4.0650   23.4640 C   0  0  0  0  0  0  0  0  0  0  0  0
   12.9980    4.8050   23.6970 C   0  0  0  0  0  0  0  0  0  0  0  0
   13.7490    5.2580   22.5970 C   0  0  0  0  0  0  0  0  0  0  0  0
   13.3660    5.0870   21.3280 N   0  0  0  0  0  0  0  0  0  0  0  0
   12.2310    4.4070   21.1150 C   0  0  0  0  0  0  0  0  0  0  0  0
   11.4530    3.8590   22.1360 C   0  0  0  0  0  0  0  0  0  0  0  0
    9.8430    0.6410   23.4160 C   0  0  0  0  0  0  0  0  0  0  0  0
  1  2  2  0
  2  3  1  0
  2 10  1  0
  3  4  1  0
  4  5  2  0
  4  9  1  0
  5  6  1  0
  6  7  2  0
  7  8  1  0
  8  9  2  0
 10 11  1  0
 11 24  1  0
 11 12  2  0
 12 13  1  0
 13 14  2  0
 14 15  1  0
 15 16  1  0
 15 24  2  0
 16 17  1  0
 17 18  1  0
 18 19  2  0
 18 23  1  0
 19 20  1  0
 20 21  2  0
 21 22  1  0
 22 23  2  0
M  END
