WPC2767_minimised.pdb
     RDKit          3D

 22 23  0  0  0  0  0  0  0  0999 V2000
   16.1490    1.8810   20.0660 C   0  0  0  0  0  0  0  0  0  0  0  0
   15.4480    2.0660   21.4380 C   0  0  0  0  0  0  0  0  0  0  0  0
   14.1520    1.2580   21.5940 C   0  0  0  0  0  0  0  0  0  0  0  0
   14.3040   -0.0810   21.0060 N   0  0  0  0  0  0  0  0  0  0  0  0
   13.0570   -0.8550   20.9870 C   0  0  0  0  0  0  0  0  0  0  0  0
   12.6320   -1.3040   22.3930 C   0  0  0  0  0  0  0  0  0  0  0  0
   11.4790   -0.4890   22.9530 C   0  0  0  0  0  0  0  0  0  0  0  0
   10.2140   -0.5900   22.3520 C   0  0  0  0  0  0  0  0  0  0  0  0
    9.1280    0.1300   22.8680 C   0  0  0  0  0  0  0  0  0  0  0  0
   11.6480    0.3520   24.0670 C   0  0  0  0  0  0  0  0  0  0  0  0
   10.5540    1.0550   24.5940 C   0  0  0  0  0  0  0  0  0  0  0  0
    7.8680    0.0680   22.2480 N   0  0  0  0  0  0  0  0  0  0  0  0
    9.2910    0.9380   23.9990 C   0  0  0  0  0  0  0  0  0  0  0  0
    7.6190    0.2990   20.9260 C   0  0  0  0  0  0  0  0  0  0  0  0
    8.4680    0.4680   20.0700 O   0  0  0  0  0  0  0  0  0  0  0  0
    6.2780    0.3420   20.6770 N   0  0  0  0  0  0  0  0  0  0  0  0
    5.6690    0.8270   19.5010 C   0  0  0  0  0  0  0  0  0  0  0  0
    6.1180    0.4650   18.2120 C   0  0  0  0  0  0  0  0  0  0  0  0
    4.6430    1.7700   19.6290 C   0  0  0  0  0  0  0  0  0  0  0  0
    5.6000    0.9830   17.0780 N   0  0  0  0  0  0  0  0  0  0  0  0
    4.1280    2.3300   18.4560 C   0  0  0  0  0  0  0  0  0  0  0  0
    4.6490    1.9360   17.2160 C   0  0  0  0  0  0  0  0  0  0  0  0
  1  2  1  0
  2  3  1  0
  3  4  1  0
  4  5  1  0
  5  6  1  0
  6  7  1  0
  7 10  2  0
  7  8  1  0
  8  9  2  0
  9 12  1  0
  9 13  1  0
 10 11  1  0
 11 13  2  0
 12 14  1  0
 14 15  2  0
 14 16  1  0
 16 17  1  0
 17 18  2  0
 17 19  1  0
 18 20  1  0
 19 21  2  0
 20 22  2  0
 21 22  1  0
M  END
