WPC2818_minimised.pdb
     RDKit          3D

 17 18  0  0  0  0  0  0  0  0999 V2000
   13.2730   -1.1330   21.2470 O   0  0  0  0  0  0  0  0  0  0  0  0
   12.3940   -0.3880   21.9640 C   0  0  0  0  0  0  0  0  0  0  0  0
   11.0200   -0.6150   21.8150 C   0  0  0  0  0  0  0  0  0  0  0  0
   10.0930    0.2040   22.4730 C   0  0  0  0  0  0  0  0  0  0  0  0
   12.8490    0.6430   22.7950 C   0  0  0  0  0  0  0  0  0  0  0  0
   11.9210    1.4550   23.4690 C   0  0  0  0  0  0  0  0  0  0  0  0
    8.7130    0.0670   22.2160 N   0  0  0  0  0  0  0  0  0  0  0  0
   10.5440    1.2310   23.3130 C   0  0  0  0  0  0  0  0  0  0  0  0
    8.1590    0.1290   20.9660 C   0  0  0  0  0  0  0  0  0  0  0  0
    8.8130    0.1560   19.9440 O   0  0  0  0  0  0  0  0  0  0  0  0
    6.7900    0.1990   20.9500 N   0  0  0  0  0  0  0  0  0  0  0  0
    6.0210    0.6070   19.8290 C   0  0  0  0  0  0  0  0  0  0  0  0
    6.3080    0.1780   18.5120 C   0  0  0  0  0  0  0  0  0  0  0  0
    5.0200    1.5670   20.0190 C   0  0  0  0  0  0  0  0  0  0  0  0
    5.6840    0.6610   17.4170 N   0  0  0  0  0  0  0  0  0  0  0  0
    4.3830    2.0810   18.8830 C   0  0  0  0  0  0  0  0  0  0  0  0
    4.7700    1.6370   17.6110 C   0  0  0  0  0  0  0  0  0  0  0  0
  1  2  1  0
  2  3  2  0
  2  5  1  0
  3  4  1  0
  4  8  2  0
  4  7  1  0
  5  6  2  0
  6  8  1  0
  7  9  1  0
  9 10  2  0
  9 11  1  0
 11 12  1  0
 12 13  2  0
 12 14  1  0
 13 15  1  0
 14 16  2  0
 15 17  2  0
 16 17  1  0
M  END
