WPC2351_minimised.pdb
     RDKit          3D

 24 26  0  0  0  0  0  0  0  0999 V2000
   11.2720    5.9400   25.0950 N   0  0  0  0  0  0  0  0  0  0  0  0
   11.0130    5.7030   23.6800 C   0  0  0  0  0  0  0  0  0  0  0  0
   12.2640    5.0620   23.0390 C   0  0  0  0  0  0  0  0  0  0  0  0
   12.5490    3.6300   23.5590 C   0  0  0  0  0  0  0  0  0  0  0  0
   11.4040    3.0430   24.2890 N   0  0  0  0  0  0  0  0  0  0  0  0
   11.6160    1.6490   24.7350 C   0  0  0  0  0  0  0  0  0  0  0  0
   11.3730    0.6090   23.6570 C   0  0  0  0  0  0  0  0  0  0  0  0
   12.4310    0.1030   22.8810 C   0  0  0  0  0  0  0  0  0  0  0  0
   12.1760   -0.8640   21.8960 C   0  0  0  0  0  0  0  0  0  0  0  0
   10.8540   -1.2740   21.6520 C   0  0  0  0  0  0  0  0  0  0  0  0
    9.7940   -0.7220   22.3820 C   0  0  0  0  0  0  0  0  0  0  0  0
    8.4540   -0.9220   21.9920 N   0  0  0  0  0  0  0  0  0  0  0  0
    7.9660   -0.5070   20.7820 C   0  0  0  0  0  0  0  0  0  0  0  0
    8.6680   -0.2040   19.8370 O   0  0  0  0  0  0  0  0  0  0  0  0
    6.6030   -0.4000   20.7340 N   0  0  0  0  0  0  0  0  0  0  0  0
    5.8990    0.2360   19.6810 C   0  0  0  0  0  0  0  0  0  0  0  0
    4.9810    1.2500   19.9820 C   0  0  0  0  0  0  0  0  0  0  0  0
    4.4130    1.9560   18.9120 C   0  0  0  0  0  0  0  0  0  0  0  0
    4.7850    1.6390   17.5960 C   0  0  0  0  0  0  0  0  0  0  0  0
    5.6380    0.6350   17.2960 N   0  0  0  0  0  0  0  0  0  0  0  0
    6.1910   -0.0370   18.3260 C   0  0  0  0  0  0  0  0  0  0  0  0
   10.0600    0.1720   23.4180 C   0  0  0  0  0  0  0  0  0  0  0  0
   10.1040    3.2940   23.6290 C   0  0  0  0  0  0  0  0  0  0  0  0
    9.7800    4.7990   23.5220 C   0  0  0  0  0  0  0  0  0  0  0  0
  1  2  1  0
  2  3  1  0
  2 24  1  0
  3  4  1  0
  4  5  1  0
  5 23  1  0
  5  6  1  0
  6  7  1  0
  7 22  1  0
  7  8  2  0
  8  9  1  0
  9 10  2  0
 10 11  1  0
 11 12  1  0
 11 22  2  0
 12 13  1  0
 13 14  2  0
 13 15  1  0
 15 16  1  0
 16 17  2  0
 16 21  1  0
 17 18  1  0
 18 19  2  0
 19 20  1  0
 20 21  2  0
 23 24  1  0
M  END
