WPC2625_minimised.pdb
     RDKit          3D

 17 18  0  0  0  0  0  0  0  0999 V2000
    8.7910    0.0950   19.8610 O   0  0  0  0  0  0  0  0  0  0  0  0
    8.1710   -0.0170   20.8970 C   0  0  0  0  0  0  0  0  0  0  0  0
    6.8030    0.0510   20.9260 N   0  0  0  0  0  0  0  0  0  0  0  0
    6.0130    0.5020   19.8360 C   0  0  0  0  0  0  0  0  0  0  0  0
    5.0550    1.4980   20.0600 C   0  0  0  0  0  0  0  0  0  0  0  0
    4.4160    2.0540   18.9440 C   0  0  0  0  0  0  0  0  0  0  0  0
    4.7630    1.6180   17.6570 C   0  0  0  0  0  0  0  0  0  0  0  0
    5.6380    0.6130   17.4310 N   0  0  0  0  0  0  0  0  0  0  0  0
    6.2550    0.0800   18.5070 C   0  0  0  0  0  0  0  0  0  0  0  0
    8.7790   -0.1730   22.1130 N   0  0  0  0  0  0  0  0  0  0  0  0
   10.1740   -0.0700   22.2960 C   0  0  0  0  0  0  0  0  0  0  0  0
   11.0210   -1.1140   21.8910 C   0  0  0  0  0  0  0  0  0  0  0  0
   12.4150   -0.9580   21.9560 C   0  0  0  0  0  0  0  0  0  0  0  0
   12.9620    0.2490   22.4230 C   0  0  0  0  0  0  0  0  0  0  0  0
   12.1120    1.2840   22.8350 C   0  0  0  0  0  0  0  0  0  0  0  0
   12.6380    2.4730   23.2150 O   0  0  0  0  0  0  0  0  0  0  0  0
   10.7230    1.1260   22.7790 C   0  0  0  0  0  0  0  0  0  0  0  0
  1  2  2  0
  2 10  1  0
  2  3  1  0
  3  4  1  0
  4  5  2  0
  4  9  1  0
  5  6  1  0
  6  7  2  0
  7  8  1  0
  8  9  2  0
 10 11  1  0
 11 12  2  0
 11 17  1  0
 12 13  1  0
 13 14  2  0
 14 15  1  0
 15 16  1  0
 15 17  2  0
M  END
