WPC2127_minimised.pdb
     RDKit          3D

 23 24  0  0  0  0  0  0  0  0999 V2000
    9.0270    6.6790   22.8030 O   0  0  0  0  0  0  0  0  0  0  0  0
    9.6030    5.6440   23.0410 C   0  0  0  0  0  0  0  0  0  0  0  0
    8.9450    4.5670   23.4900 O   0  0  0  0  0  0  0  0  0  0  0  0
   11.0910    5.6240   23.3630 C   0  0  0  0  0  0  0  0  0  0  0  0
   11.5860    4.2940   24.5320 S   0  0  0  0  0  0  0  0  0  0  0  0
   11.7990    2.9270   23.3290 C   0  0  0  0  0  0  0  0  0  0  0  0
   11.9380    1.5930   24.0760 C   0  0  0  0  0  0  0  0  0  0  0  0
   11.4810    0.4510   23.2050 C   0  0  0  0  0  0  0  0  0  0  0  0
   12.4040   -0.3490   22.5130 C   0  0  0  0  0  0  0  0  0  0  0  0
   11.9450   -1.4060   21.7160 C   0  0  0  0  0  0  0  0  0  0  0  0
   10.5650   -1.6250   21.5730 C   0  0  0  0  0  0  0  0  0  0  0  0
    9.6480   -0.7820   22.2100 C   0  0  0  0  0  0  0  0  0  0  0  0
    8.2810   -0.8330   21.8820 N   0  0  0  0  0  0  0  0  0  0  0  0
    7.8090   -0.4360   20.6630 C   0  0  0  0  0  0  0  0  0  0  0  0
    8.5250   -0.2090   19.7070 O   0  0  0  0  0  0  0  0  0  0  0  0
    6.4530   -0.2660   20.6200 N   0  0  0  0  0  0  0  0  0  0  0  0
    5.7640    0.3700   19.5590 C   0  0  0  0  0  0  0  0  0  0  0  0
    4.8390    1.3790   19.8540 C   0  0  0  0  0  0  0  0  0  0  0  0
    4.2820    2.0850   18.7790 C   0  0  0  0  0  0  0  0  0  0  0  0
    4.6810    1.7840   17.4690 C   0  0  0  0  0  0  0  0  0  0  0  0
    5.5380    0.7800   17.1750 N   0  0  0  0  0  0  0  0  0  0  0  0
    6.0710    0.1000   18.2080 C   0  0  0  0  0  0  0  0  0  0  0  0
   10.1040    0.2370   23.0490 C   0  0  0  0  0  0  0  0  0  0  0  0
  1  2  2  0
  2  3  1  0
  2  4  1  0
  4  5  1  0
  5  6  1  0
  6  7  1  0
  7  8  1  0
  8 23  2  0
  8  9  1  0
  9 10  2  0
 10 11  1  0
 11 12  2  0
 12 13  1  0
 12 23  1  0
 13 14  1  0
 14 15  2  0
 14 16  1  0
 16 17  1  0
 17 18  2  0
 17 22  1  0
 18 19  1  0
 19 20  2  0
 20 21  1  0
 21 22  2  0
M  END
