WPC2406_minimised.pdb
     RDKit          3D

 24 26  0  0  0  0  0  0  0  0999 V2000
    8.6340    0.0390   19.7600 O   0  0  0  0  0  0  0  0  0  0  0  0
    7.8980   -0.3060   20.6610 C   0  0  0  0  0  0  0  0  0  0  0  0
    6.5390   -0.3480   20.5340 N   0  0  0  0  0  0  0  0  0  0  0  0
    5.8420    0.2910   19.4820 C   0  0  0  0  0  0  0  0  0  0  0  0
    4.9090    1.2880   19.7900 C   0  0  0  0  0  0  0  0  0  0  0  0
    4.3580    2.0160   18.7280 C   0  0  0  0  0  0  0  0  0  0  0  0
    4.7690    1.7430   17.4150 C   0  0  0  0  0  0  0  0  0  0  0  0
    5.6420    0.7570   17.1100 N   0  0  0  0  0  0  0  0  0  0  0  0
    6.1740    0.0590   18.1320 C   0  0  0  0  0  0  0  0  0  0  0  0
    8.3250   -0.5870   21.9250 N   0  0  0  0  0  0  0  0  0  0  0  0
    9.5130   -0.0490   22.4480 C   0  0  0  0  0  0  0  0  0  0  0  0
   10.7680   -0.6180   22.1860 C   0  0  0  0  0  0  0  0  0  0  0  0
   11.9270    0.0060   22.6790 C   0  0  0  0  0  0  0  0  0  0  0  0
   11.8270    1.1950   23.4230 C   0  0  0  0  0  0  0  0  0  0  0  0
   10.5680    1.7910   23.6410 C   0  0  0  0  0  0  0  0  0  0  0  0
   10.3980    3.1220   24.3660 C   0  0  0  0  0  0  0  0  0  0  0  0
   11.3260    4.1880   23.9860 N   0  0  0  0  0  0  0  0  0  0  0  0
   12.0890    4.2540   22.8420 C   0  0  0  0  0  0  0  0  0  0  0  0
   12.8730    5.3640   23.0080 C   0  0  0  0  0  0  0  0  0  0  0  0
   14.1980    5.9720   21.8210 Br  0  0  0  0  0  0  0  0  0  0  0  0
   12.4470    5.9610   24.1820 N   0  0  0  0  0  0  0  0  0  0  0  0
   12.8380    7.0510   24.6180 O   0  0  0  0  0  0  0  0  0  0  0  0
   11.4700    5.2570   24.8220 N   0  0  0  0  0  0  0  0  0  0  0  0
    9.4170    1.1500   23.1620 C   0  0  0  0  0  0  0  0  0  0  0  0
  1  2  2  0
  2 10  1  0
  2  3  1  0
  3  4  1  0
  4  5  2  0
  4  9  1  0
  5  6  1  0
  6  7  2  0
  7  8  1  0
  8  9  2  0
 10 11  1  0
 11 12  2  0
 11 24  1  0
 12 13  1  0
 13 14  2  0
 14 15  1  0
 15 16  1  0
 15 24  2  0
 16 17  1  0
 17 18  1  0
 17 23  1  0
 18 19  2  0
 19 21  1  0
 19 20  1  0
 21 22  1  0
 21 23  1  0
M  END
