WPC2347_minimised.pdb
     RDKit          3D

 23 24  0  0  0  0  0  0  0  0999 V2000
    8.7500    0.1910   19.8650 O   0  0  0  0  0  0  0  0  0  0  0  0
    8.1000   -0.1160   20.8410 C   0  0  0  0  0  0  0  0  0  0  0  0
    6.7370   -0.2250   20.7970 N   0  0  0  0  0  0  0  0  0  0  0  0
    5.9640    0.2940   19.7300 C   0  0  0  0  0  0  0  0  0  0  0  0
    5.0200    1.2930   19.9990 C   0  0  0  0  0  0  0  0  0  0  0  0
    4.4100    1.9250   18.9080 C   0  0  0  0  0  0  0  0  0  0  0  0
    4.7670    1.5530   17.6030 C   0  0  0  0  0  0  0  0  0  0  0  0
    5.6450    0.5600   17.3350 N   0  0  0  0  0  0  0  0  0  0  0  0
    6.2400   -0.0400   18.3860 C   0  0  0  0  0  0  0  0  0  0  0  0
    8.6430   -0.2940   22.0820 N   0  0  0  0  0  0  0  0  0  0  0  0
    9.9160    0.1930   22.4430 C   0  0  0  0  0  0  0  0  0  0  0  0
   11.0970   -0.4030   21.9710 C   0  0  0  0  0  0  0  0  0  0  0  0
   12.3460    0.1610   22.2910 C   0  0  0  0  0  0  0  0  0  0  0  0
   12.4130    1.3240   23.0800 C   0  0  0  0  0  0  0  0  0  0  0  0
   11.2270    1.9230   23.5360 C   0  0  0  0  0  0  0  0  0  0  0  0
   11.2190    3.3740   24.5600 S   0  0  0  0  0  0  0  0  0  0  0  0
   12.1680    4.6970   23.6920 C   0  0  0  0  0  0  0  0  0  0  0  0
   13.4990    4.4650   23.7070 F   0  0  0  0  0  0  0  0  0  0  0  0
   11.8330    4.8110   22.3920 F   0  0  0  0  0  0  0  0  0  0  0  0
   11.8490    6.0090   24.4550 C   0  0  0  0  0  0  0  0  0  0  0  0
   10.6400    6.4960   24.0890 F   0  0  0  0  0  0  0  0  0  0  0  0
   12.7580    6.9800   24.2280 F   0  0  0  0  0  0  0  0  0  0  0  0
    9.9890    1.3510   23.2250 C   0  0  0  0  0  0  0  0  0  0  0  0
  1  2  2  0
  2 10  1  0
  2  3  1  0
  3  4  1  0
  4  5  2  0
  4  9  1  0
  5  6  1  0
  6  7  2  0
  7  8  1  0
  8  9  2  0
 10 11  1  0
 11 12  2  0
 11 23  1  0
 12 13  1  0
 13 14  2  0
 14 15  1  0
 15 16  1  0
 15 23  2  0
 16 17  1  0
 17 20  1  0
 17 18  1  0
 17 19  1  0
 20 21  1  0
 20 22  1  0
M  END
