WPC2528_minimised.pdb
     RDKit          3D

 24 26  0  0  0  0  0  0  0  0999 V2000
    8.9740    5.0250   23.8520 O   0  0  0  0  0  0  0  0  0  0  0  0
   10.1240    4.6430   23.8320 C   0  0  0  0  0  0  0  0  0  0  0  0
   11.2370    5.5050   23.2470 C   0  0  0  0  0  0  0  0  0  0  0  0
   12.6550    4.8790   23.2870 C   0  0  0  0  0  0  0  0  0  0  0  0
   12.5880    3.3430   23.2390 C   0  0  0  0  0  0  0  0  0  0  0  0
   11.7800    2.8830   24.3830 N   0  0  0  0  0  0  0  0  0  0  0  0
   11.8340    1.4280   24.6300 C   0  0  0  0  0  0  0  0  0  0  0  0
   11.3790    0.5500   23.4850 C   0  0  0  0  0  0  0  0  0  0  0  0
   12.3260   -0.1240   22.6920 C   0  0  0  0  0  0  0  0  0  0  0  0
   11.9030   -1.0450   21.7240 C   0  0  0  0  0  0  0  0  0  0  0  0
   10.5310   -1.2540   21.5240 C   0  0  0  0  0  0  0  0  0  0  0  0
    9.5870   -0.5230   22.2550 C   0  0  0  0  0  0  0  0  0  0  0  0
    8.2220   -0.5800   21.9120 N   0  0  0  0  0  0  0  0  0  0  0  0
    7.7510   -0.2450   20.6730 C   0  0  0  0  0  0  0  0  0  0  0  0
    8.4650   -0.0490   19.7080 O   0  0  0  0  0  0  0  0  0  0  0  0
    6.3920   -0.1040   20.6260 N   0  0  0  0  0  0  0  0  0  0  0  0
    5.6920    0.4900   19.5490 C   0  0  0  0  0  0  0  0  0  0  0  0
    4.7510    1.4910   19.8190 C   0  0  0  0  0  0  0  0  0  0  0  0
    4.1960    2.1720   18.7290 C   0  0  0  0  0  0  0  0  0  0  0  0
    4.6070    1.8500   17.4270 C   0  0  0  0  0  0  0  0  0  0  0  0
    5.4740    0.8480   17.1550 N   0  0  0  0  0  0  0  0  0  0  0  0
    6.0090    0.1950   18.2050 C   0  0  0  0  0  0  0  0  0  0  0  0
   10.0080    0.3550   23.2570 C   0  0  0  0  0  0  0  0  0  0  0  0
   10.4630    3.4130   24.3580 N   0  0  0  0  0  0  0  0  0  0  0  0
  1  2  2  0
  2 24  1  0
  2  3  1  0
  3  4  1  0
  4  5  1  0
  5  6  1  0
  6  7  1  0
  6 24  1  0
  7  8  1  0
  8 23  1  0
  8  9  2  0
  9 10  1  0
 10 11  2  0
 11 12  1  0
 12 13  1  0
 12 23  2  0
 13 14  1  0
 14 15  2  0
 14 16  1  0
 16 17  1  0
 17 18  2  0
 17 22  1  0
 18 19  1  0
 19 20  2  0
 20 21  1  0
 21 22  2  0
M  END
