WPC2657_minimised.pdb
     RDKit          3D

 24 26  0  0  1  0  0  0  0  0999 V2000
    8.5890    0.1630   19.7200 O   0  0  0  0  0  0  0  0  0  0  0  0
    7.9030   -0.1290   20.6790 C   0  0  0  0  0  0  0  0  0  0  0  0
    6.5370   -0.0950   20.6370 N   0  0  0  0  0  0  0  0  0  0  0  0
    5.8130    0.4850   19.5690 C   0  0  0  0  0  0  0  0  0  0  0  0
    4.8800    1.4930   19.8410 C   0  0  0  0  0  0  0  0  0  0  0  0
    4.3260    2.1760   18.7500 C   0  0  0  0  0  0  0  0  0  0  0  0
    4.7330    1.8510   17.4470 C   0  0  0  0  0  0  0  0  0  0  0  0
    5.5930    0.8440   17.1760 N   0  0  0  0  0  0  0  0  0  0  0  0
    6.1250    0.1860   18.2250 C   0  0  0  0  0  0  0  0  0  0  0  0
    8.4180   -0.4490   21.9020 N   0  0  0  0  0  0  0  0  0  0  0  0
    9.7700   -0.2370   22.2240 C   0  0  0  0  0  0  0  0  0  0  0  0
   10.7720   -1.0470   21.6730 C   0  0  0  0  0  0  0  0  0  0  0  0
   12.1230   -0.7290   21.8790 C   0  0  0  0  0  0  0  0  0  0  0  0
   12.4650    0.4020   22.6390 C   0  0  0  0  0  0  0  0  0  0  0  0
   11.4590    1.2130   23.1940 C   0  0  0  0  0  0  0  0  0  0  0  0
   11.8200    2.3710   24.1030 C   0  0  0  0  0  0  0  0  0  0  0  0
   11.7890    3.8090   23.5090 C   0  0  1  0  0  0  0  0  0  0  0  0
   13.0560    4.1620   22.7100 C   0  0  0  0  0  0  0  0  0  0  0  0
   14.1300    4.2770   23.2710 O   0  0  0  0  0  0  0  0  0  0  0  0
   12.8510    4.8200   21.5550 O   0  0  0  0  0  0  0  0  0  0  0  0
   10.4480    4.1190   22.8340 C   0  0  0  0  0  0  0  0  0  0  0  0
    9.3040    4.6110   23.6760 C   0  0  0  0  0  0  0  0  0  0  0  0
    9.9520    5.5410   22.6910 C   0  0  0  0  0  0  0  0  0  0  0  0
   10.1110    0.8760   23.0000 C   0  0  0  0  0  0  0  0  0  0  0  0
  1  2  2  0
  2  3  1  0
  2 10  1  0
  3  4  1  0
  4  5  2  0
  4  9  1  0
  5  6  1  0
  6  7  2  0
  7  8  1  0
  8  9  2  0
 10 11  1  0
 11 24  1  0
 11 12  2  0
 12 13  1  0
 13 14  2  0
 14 15  1  0
 15 16  1  0
 15 24  2  0
 17 16  1  6
 17 18  1  0
 17 21  1  0
 18 19  2  0
 18 20  1  0
 21 22  1  0
 21 23  1  0
 22 23  1  0
M  END
