WPC2175_minimised.pdb
     RDKit          3D

 24 26  0  0  0  0  0  0  0  0999 V2000
    8.5140   -0.1450   19.6250 O   0  0  0  0  0  0  0  0  0  0  0  0
    7.7240   -0.4110   20.5080 C   0  0  0  0  0  0  0  0  0  0  0  0
    6.3750   -0.2480   20.3730 N   0  0  0  0  0  0  0  0  0  0  0  0
    5.7490    0.4570   19.3220 C   0  0  0  0  0  0  0  0  0  0  0  0
    4.8130    1.4540   19.6240 C   0  0  0  0  0  0  0  0  0  0  0  0
    4.2990    2.2070   18.5610 C   0  0  0  0  0  0  0  0  0  0  0  0
    4.7510    1.9620   17.2560 C   0  0  0  0  0  0  0  0  0  0  0  0
    5.6320    0.9810   16.9560 N   0  0  0  0  0  0  0  0  0  0  0  0
    6.1230    0.2550   17.9790 C   0  0  0  0  0  0  0  0  0  0  0  0
    8.0620   -0.8330   21.7600 N   0  0  0  0  0  0  0  0  0  0  0  0
    9.2890   -0.5250   22.3700 C   0  0  0  0  0  0  0  0  0  0  0  0
   10.5120   -0.9950   21.8710 C   0  0  0  0  0  0  0  0  0  0  0  0
   11.7180   -0.5310   22.4240 C   0  0  0  0  0  0  0  0  0  0  0  0
   11.6930    0.3950   23.4820 C   0  0  0  0  0  0  0  0  0  0  0  0
   10.4620    0.8520   23.9880 C   0  0  0  0  0  0  0  0  0  0  0  0
   10.3870    1.9120   25.0660 C   0  0  0  0  0  0  0  0  0  0  0  0
   10.8890    3.2030   24.5780 N   0  0  0  0  0  0  0  0  0  0  0  0
   10.2440    3.9260   23.6080 C   0  0  0  0  0  0  0  0  0  0  0  0
    8.6750    3.6750   23.1250 S   0  0  0  0  0  0  0  0  0  0  0  0
   11.0430    4.8350   22.9690 N   0  0  0  0  0  0  0  0  0  0  0  0
   12.3960    5.2240   23.2890 C   0  0  0  0  0  0  0  0  0  0  0  0
   13.4380    4.1570   23.0640 C   0  0  0  0  0  0  0  0  0  0  0  0
   13.2720    5.2640   22.0590 C   0  0  0  0  0  0  0  0  0  0  0  0
    9.2670    0.3810   23.4310 C   0  0  0  0  0  0  0  0  0  0  0  0
  1  2  2  0
  2  3  1  0
  2 10  1  0
  3  4  1  0
  4  5  2  0
  4  9  1  0
  5  6  1  0
  6  7  2  0
  7  8  1  0
  8  9  2  0
 10 11  1  0
 11 24  1  0
 11 12  2  0
 12 13  1  0
 13 14  2  0
 14 15  1  0
 15 16  1  0
 15 24  2  0
 16 17  1  0
 17 18  1  0
 18 19  2  0
 18 20  1  0
 20 21  1  0
 21 22  1  0
 21 23  1  0
 22 23  1  0
M  END
