WPC2523_minimised.pdb
     RDKit          3D

 23 24  0  0  1  0  0  0  0  0999 V2000
   11.6740    6.4180   24.6500 C   0  0  0  0  0  0  0  0  0  0  0  0
   10.7260    5.9620   23.8190 C   0  0  0  0  0  0  0  0  0  0  0  0
    9.8810    4.7470   24.0840 C   0  0  0  0  0  0  0  0  0  0  0  0
   10.4340    3.5690   23.4190 N   0  0  0  0  0  0  0  0  0  0  0  0
   11.7740    3.1760   23.8820 C   0  0  2  0  0  0  0  0  0  0  0  0
   12.8330    3.5840   22.8460 C   0  0  0  0  0  0  0  0  0  0  0  0
   11.8420    1.6840   24.2810 C   0  0  0  0  0  0  0  0  0  0  0  0
   11.4230    0.6720   23.2360 C   0  0  0  0  0  0  0  0  0  0  0  0
   12.3800   -0.1090   22.5650 C   0  0  0  0  0  0  0  0  0  0  0  0
   11.9650   -1.1400   21.7090 C   0  0  0  0  0  0  0  0  0  0  0  0
   10.5950   -1.3710   21.5120 C   0  0  0  0  0  0  0  0  0  0  0  0
    9.6450   -0.5550   22.1380 C   0  0  0  0  0  0  0  0  0  0  0  0
    8.2800   -0.6600   21.8160 N   0  0  0  0  0  0  0  0  0  0  0  0
    7.7880   -0.3680   20.5770 C   0  0  0  0  0  0  0  0  0  0  0  0
    8.4840   -0.2240   19.5900 O   0  0  0  0  0  0  0  0  0  0  0  0
    6.4320   -0.1920   20.5580 N   0  0  0  0  0  0  0  0  0  0  0  0
    5.7240    0.4230   19.4980 C   0  0  0  0  0  0  0  0  0  0  0  0
    4.7980    1.4310   19.7960 C   0  0  0  0  0  0  0  0  0  0  0  0
    4.2300    2.1310   18.7240 C   0  0  0  0  0  0  0  0  0  0  0  0
    4.6190    1.8250   17.4120 C   0  0  0  0  0  0  0  0  0  0  0  0
    5.4720    0.8190   17.1150 N   0  0  0  0  0  0  0  0  0  0  0  0
    6.0150    0.1440   18.1460 C   0  0  0  0  0  0  0  0  0  0  0  0
   10.0570    0.4500   23.0150 C   0  0  0  0  0  0  0  0  0  0  0  0
  1  2  2  0
  2  3  1  0
  3  4  1  0
  4  5  1  0
  5  6  1  6
  5  7  1  0
  7  8  1  0
  8 23  2  0
  8  9  1  0
  9 10  2  0
 10 11  1  0
 11 12  2  0
 12 13  1  0
 12 23  1  0
 13 14  1  0
 14 15  2  0
 14 16  1  0
 16 17  1  0
 17 18  2  0
 17 22  1  0
 18 19  1  0
 19 20  2  0
 20 21  1  0
 21 22  2  0
M  END
