WPC2425_minimised.pdb
     RDKit          3D

 24 26  0  0  0  0  0  0  0  0999 V2000
    8.6540    0.3340   19.8950 O   0  0  0  0  0  0  0  0  0  0  0  0
    7.9840   -0.1950   20.7590 C   0  0  0  0  0  0  0  0  0  0  0  0
    6.6360   -0.3800   20.6280 N   0  0  0  0  0  0  0  0  0  0  0  0
    5.8820    0.2190   19.5920 C   0  0  0  0  0  0  0  0  0  0  0  0
    4.9240    1.1890   19.9110 C   0  0  0  0  0  0  0  0  0  0  0  0
    4.3340    1.8940   18.8540 C   0  0  0  0  0  0  0  0  0  0  0  0
    4.7210    1.6140   17.5340 C   0  0  0  0  0  0  0  0  0  0  0  0
    5.6160    0.6520   17.2180 N   0  0  0  0  0  0  0  0  0  0  0  0
    6.1970   -0.0120   18.2370 C   0  0  0  0  0  0  0  0  0  0  0  0
    8.4790   -0.5760   21.9710 N   0  0  0  0  0  0  0  0  0  0  0  0
    9.6710   -0.0530   22.5010 C   0  0  0  0  0  0  0  0  0  0  0  0
   10.9320   -0.4800   22.0560 C   0  0  0  0  0  0  0  0  0  0  0  0
   12.0940    0.1390   22.5530 C   0  0  0  0  0  0  0  0  0  0  0  0
   11.9880    1.1910   23.4810 C   0  0  0  0  0  0  0  0  0  0  0  0
   10.7190    1.6180   23.9070 C   0  0  0  0  0  0  0  0  0  0  0  0
   10.5110    2.9480   25.0590 S   0  0  0  0  0  0  0  0  0  0  0  0
   10.4080    4.4500   24.0030 C   0  0  0  0  0  0  0  0  0  0  0  0
   11.8230    4.7130   23.5610 C   0  0  0  0  0  0  0  0  0  0  0  0
   12.1420    4.6530   22.1230 C   0  0  0  0  0  0  0  0  0  0  0  0
   13.6250    4.8740   22.1530 C   0  0  0  0  0  0  0  0  0  0  0  0
   14.2420    5.4020   21.2460 O   0  0  0  0  0  0  0  0  0  0  0  0
   13.9550    4.9940   23.4740 O   0  0  0  0  0  0  0  0  0  0  0  0
   12.8230    4.9290   24.3200 N   0  0  0  0  0  0  0  0  0  0  0  0
    9.5690    0.9900   23.4250 C   0  0  0  0  0  0  0  0  0  0  0  0
  1  2  2  0
  2  3  1  0
  2 10  1  0
  3  4  1  0
  4  5  2  0
  4  9  1  0
  5  6  1  0
  6  7  2  0
  7  8  1  0
  8  9  2  0
 10 11  1  0
 11 24  1  0
 11 12  2  0
 12 13  1  0
 13 14  2  0
 14 15  1  0
 15 16  1  0
 15 24  2  0
 16 17  1  0
 17 18  1  0
 18 19  1  0
 18 23  2  0
 19 20  1  0
 20 21  2  0
 20 22  1  0
 22 23  1  0
M  END
