WPC2375_minimised.pdb
     RDKit          3D

 23 25  0  0  0  0  0  0  0  0999 V2000
    8.4320   -0.1070   19.6610 O   0  0  0  0  0  0  0  0  0  0  0  0
    7.6830   -0.3340   20.5900 C   0  0  0  0  0  0  0  0  0  0  0  0
    6.3230   -0.2420   20.4890 N   0  0  0  0  0  0  0  0  0  0  0  0
    5.6560    0.3990   19.4210 C   0  0  0  0  0  0  0  0  0  0  0  0
    4.7270    1.4070   19.7080 C   0  0  0  0  0  0  0  0  0  0  0  0
    4.1980    2.1280   18.6300 C   0  0  0  0  0  0  0  0  0  0  0  0
    4.6220    1.8350   17.3260 C   0  0  0  0  0  0  0  0  0  0  0  0
    5.4920    0.8400   17.0410 N   0  0  0  0  0  0  0  0  0  0  0  0
    6.0020    0.1480   18.0770 C   0  0  0  0  0  0  0  0  0  0  0  0
    8.0980   -0.6220   21.8570 N   0  0  0  0  0  0  0  0  0  0  0  0
    9.3870   -0.3130   22.3250 C   0  0  0  0  0  0  0  0  0  0  0  0
   10.5270   -0.9360   21.7960 C   0  0  0  0  0  0  0  0  0  0  0  0
   11.8060   -0.5040   22.1840 C   0  0  0  0  0  0  0  0  0  0  0  0
   11.9360    0.5500   23.1040 C   0  0  0  0  0  0  0  0  0  0  0  0
   10.7900    1.1580   23.6470 C   0  0  0  0  0  0  0  0  0  0  0  0
   10.9030    2.2810   24.6570 C   0  0  0  0  0  0  0  0  0  0  0  0
   10.7620    3.6850   24.0340 C   0  0  0  0  0  0  0  0  0  0  0  0
   11.9230    4.1630   23.2690 N   0  0  0  0  0  0  0  0  0  0  0  0
   11.9280    5.1410   22.3140 C   0  0  0  0  0  0  0  0  0  0  0  0
   13.1600    5.3660   21.9090 N   0  0  0  0  0  0  0  0  0  0  0  0
   13.9030    4.4740   22.6370 C   0  0  0  0  0  0  0  0  0  0  0  0
   13.1940    3.7490   23.4840 N   0  0  0  0  0  0  0  0  0  0  0  0
    9.5180    0.7190   23.2580 C   0  0  0  0  0  0  0  0  0  0  0  0
  1  2  2  0
  2  3  1  0
  2 10  1  0
  3  4  1  0
  4  5  2  0
  4  9  1  0
  5  6  1  0
  6  7  2  0
  7  8  1  0
  8  9  2  0
 10 11  1  0
 11 23  1  0
 11 12  2  0
 12 13  1  0
 13 14  2  0
 14 15  1  0
 15 16  1  0
 15 23  2  0
 16 17  1  0
 17 18  1  0
 18 19  1  0
 18 22  1  0
 19 20  2  0
 20 21  1  0
 21 22  2  0
M  END
