WPC2865_minimised.pdb
     RDKit          3D

 21 23  0  0  0  0  0  0  0  0999 V2000
   16.3640    0.9920   19.7830 C   0  0  0  0  0  0  0  0  0  0  0  0
   15.1420    1.1880   18.9540 C   0  0  0  0  0  0  0  0  0  0  0  0
   15.1640    0.1080   20.0100 C   0  0  0  0  0  0  0  0  0  0  0  0
   14.4230    0.2900   21.2380 N   0  0  0  0  0  0  0  0  0  0  0  0
   13.3820   -0.7140   21.5340 C   0  0  0  0  0  0  0  0  0  0  0  0
   12.2340   -0.1610   22.3800 C   0  0  0  0  0  0  0  0  0  0  0  0
   10.8930   -0.4150   22.0200 C   0  0  0  0  0  0  0  0  0  0  0  0
    9.8290    0.1210   22.7690 C   0  0  0  0  0  0  0  0  0  0  0  0
   12.4900    0.6400   23.5100 C   0  0  0  0  0  0  0  0  0  0  0  0
   11.4240    1.1810   24.2490 C   0  0  0  0  0  0  0  0  0  0  0  0
    8.4850   -0.0720   22.3770 N   0  0  0  0  0  0  0  0  0  0  0  0
   10.0980    0.9100   23.8910 C   0  0  0  0  0  0  0  0  0  0  0  0
    7.9490    0.3630   21.1970 C   0  0  0  0  0  0  0  0  0  0  0  0
    8.5950    0.8990   20.3240 O   0  0  0  0  0  0  0  0  0  0  0  0
    6.6040    0.1470   21.0530 N   0  0  0  0  0  0  0  0  0  0  0  0
    5.8640    0.5650   19.9170 C   0  0  0  0  0  0  0  0  0  0  0  0
    6.2370    0.1710   18.6120 C   0  0  0  0  0  0  0  0  0  0  0  0
    4.8300    1.4960   20.0730 C   0  0  0  0  0  0  0  0  0  0  0  0
    5.6340    0.6240   17.4920 N   0  0  0  0  0  0  0  0  0  0  0  0
    4.2320    2.0040   18.9110 C   0  0  0  0  0  0  0  0  0  0  0  0
    4.6710    1.5600   17.6540 C   0  0  0  0  0  0  0  0  0  0  0  0
  1  2  1  0
  1  3  1  0
  2  3  1  0
  3  4  1  0
  4  5  1  0
  5  6  1  0
  6  9  1  0
  6  7  2  0
  7  8  1  0
  8 11  1  0
  8 12  2  0
  9 10  2  0
 10 12  1  0
 11 13  1  0
 13 14  2  0
 13 15  1  0
 15 16  1  0
 16 17  2  0
 16 18  1  0
 17 19  1  0
 18 20  2  0
 19 21  2  0
 20 21  1  0
M  END
