WPC2003_minimised.pdb
     RDKit          3D

 23 24  0  0  0  0  0  0  0  0999 V2000
   14.2890    4.7100   22.3410 C   0  0  0  0  0  0  0  0  0  0  0  0
   13.2180    5.6530   22.4830 O   0  0  0  0  0  0  0  0  0  0  0  0
   12.7480    5.8700   23.8390 C   0  0  0  0  0  0  0  0  0  0  0  0
   11.5060    5.0640   24.2100 C   0  0  0  0  0  0  0  0  0  0  0  0
   10.6790    5.4860   24.9940 O   0  0  0  0  0  0  0  0  0  0  0  0
   11.4440    3.7900   23.7060 N   0  0  0  0  0  0  0  0  0  0  0  0
   10.5830    2.7590   24.2760 C   0  0  0  0  0  0  0  0  0  0  0  0
   10.6320    1.4630   23.4890 C   0  0  0  0  0  0  0  0  0  0  0  0
   11.8450    0.8180   23.1780 C   0  0  0  0  0  0  0  0  0  0  0  0
   11.8410   -0.3570   22.4040 C   0  0  0  0  0  0  0  0  0  0  0  0
   10.6250   -0.9000   21.9560 C   0  0  0  0  0  0  0  0  0  0  0  0
    9.4190   -0.2670   22.2890 C   0  0  0  0  0  0  0  0  0  0  0  0
    8.1820   -0.7050   21.7860 N   0  0  0  0  0  0  0  0  0  0  0  0
    7.7720   -0.4090   20.5210 C   0  0  0  0  0  0  0  0  0  0  0  0
    8.5250   -0.1600   19.6010 O   0  0  0  0  0  0  0  0  0  0  0  0
    6.4130   -0.3170   20.4150 N   0  0  0  0  0  0  0  0  0  0  0  0
    5.7520    0.3610   19.3660 C   0  0  0  0  0  0  0  0  0  0  0  0
    4.8250    1.3640   19.6780 C   0  0  0  0  0  0  0  0  0  0  0  0
    4.3010    2.1190   18.6210 C   0  0  0  0  0  0  0  0  0  0  0  0
    4.7350    1.8720   17.3110 C   0  0  0  0  0  0  0  0  0  0  0  0
    5.6030    0.8820   17.0010 N   0  0  0  0  0  0  0  0  0  0  0  0
    6.1020    0.1520   18.0160 C   0  0  0  0  0  0  0  0  0  0  0  0
    9.4250    0.9060   23.0480 C   0  0  0  0  0  0  0  0  0  0  0  0
  1  2  1  0
  2  3  1  0
  3  4  1  0
  4  5  2  0
  4  6  1  0
  6  7  1  0
  7  8  1  0
  8 23  2  0
  8  9  1  0
  9 10  2  0
 10 11  1  0
 11 12  2  0
 12 13  1  0
 12 23  1  0
 13 14  1  0
 14 15  2  0
 14 16  1  0
 16 17  1  0
 17 18  2  0
 17 22  1  0
 18 19  1  0
 19 20  2  0
 20 21  1  0
 21 22  2  0
M  END
