WPC2167_minimised.pdb
     RDKit          3D

 21 22  0  0  1  0  0  0  0  0999 V2000
    8.9420    4.2990   23.0760 N   0  0  0  0  0  0  0  0  0  0  0  0
   10.0880    4.5400   23.9680 C   0  0  2  0  0  0  0  0  0  0  0  0
   11.1440    5.4620   23.3200 C   0  0  0  0  0  0  0  0  0  0  0  0
   11.7960    4.8700   22.2000 O   0  0  0  0  0  0  0  0  0  0  0  0
   10.6920    3.2320   24.5460 C   0  0  0  0  0  0  0  0  0  0  0  0
   10.7930    2.0340   23.6090 C   0  0  0  0  0  0  0  0  0  0  0  0
   12.0310    1.5940   23.1080 C   0  0  0  0  0  0  0  0  0  0  0  0
   12.0970    0.4590   22.2800 C   0  0  0  0  0  0  0  0  0  0  0  0
   10.9200   -0.2250   21.9290 C   0  0  0  0  0  0  0  0  0  0  0  0
    9.6850    0.2150   22.4310 C   0  0  0  0  0  0  0  0  0  0  0  0
    8.4660   -0.3470   22.0070 N   0  0  0  0  0  0  0  0  0  0  0  0
    7.9750   -0.1670   20.7450 C   0  0  0  0  0  0  0  0  0  0  0  0
    8.6620    0.1210   19.7860 O   0  0  0  0  0  0  0  0  0  0  0  0
    6.6120   -0.2390   20.6710 N   0  0  0  0  0  0  0  0  0  0  0  0
    5.8710    0.3280   19.6060 C   0  0  0  0  0  0  0  0  0  0  0  0
    4.9350    1.3310   19.8900 C   0  0  0  0  0  0  0  0  0  0  0  0
    4.3480    2.0000   18.8080 C   0  0  0  0  0  0  0  0  0  0  0  0
    4.7240    1.6630   17.4990 C   0  0  0  0  0  0  0  0  0  0  0  0
    5.5980    0.6710   17.2170 N   0  0  0  0  0  0  0  0  0  0  0  0
    6.1660    0.0300   18.2590 C   0  0  0  0  0  0  0  0  0  0  0  0
    9.6300    1.3210   23.2850 C   0  0  0  0  0  0  0  0  0  0  0  0
  2  1  1  6
  2  3  1  0
  2  5  1  0
  3  4  1  0
  5  6  1  0
  6 21  2  0
  6  7  1  0
  7  8  2  0
  8  9  1  0
  9 10  2  0
 10 11  1  0
 10 21  1  0
 11 12  1  0
 12 13  2  0
 12 14  1  0
 14 15  1  0
 15 16  2  0
 15 20  1  0
 16 17  1  0
 17 18  2  0
 18 19  1  0
 19 20  2  0
M  END
