WPC2260_minimised.pdb
     RDKit          3D

 23 24  0  0  1  0  0  0  0  0999 V2000
   10.9730    5.7870   24.2550 C   0  0  0  0  0  0  0  0  0  0  0  0
   10.8860    5.0390   22.9170 C   0  0  0  0  0  0  0  0  0  0  0  0
   12.0930    4.1210   22.6060 C   0  0  2  0  0  0  0  0  0  0  0  0
   12.2020    2.7730   23.8700 S   0  0  0  0  0  0  0  0  0  0  0  0
   11.6680    1.2920   23.0580 C   0  0  0  0  0  0  0  0  0  0  0  0
   12.6060    0.3230   22.6690 C   0  0  0  0  0  0  0  0  0  0  0  0
   12.1730   -0.8630   22.0520 C   0  0  0  0  0  0  0  0  0  0  0  0
   10.8010   -1.0770   21.8380 C   0  0  0  0  0  0  0  0  0  0  0  0
    9.8680   -0.1090   22.2380 C   0  0  0  0  0  0  0  0  0  0  0  0
    8.4980   -0.2780   21.9560 N   0  0  0  0  0  0  0  0  0  0  0  0
    7.9550   -0.0350   20.7280 C   0  0  0  0  0  0  0  0  0  0  0  0
    8.6190    0.1920   19.7390 O   0  0  0  0  0  0  0  0  0  0  0  0
    6.5880   -0.0090   20.7100 N   0  0  0  0  0  0  0  0  0  0  0  0
    5.8340    0.5110   19.6310 C   0  0  0  0  0  0  0  0  0  0  0  0
    4.8880    1.5110   19.8820 C   0  0  0  0  0  0  0  0  0  0  0  0
    4.2900    2.1330   18.7780 C   0  0  0  0  0  0  0  0  0  0  0  0
    4.6670    1.7550   17.4810 C   0  0  0  0  0  0  0  0  0  0  0  0
    5.5400    0.7530   17.2300 N   0  0  0  0  0  0  0  0  0  0  0  0
    6.1160    0.1580   18.2920 C   0  0  0  0  0  0  0  0  0  0  0  0
   10.3010    1.0770   22.8450 C   0  0  0  0  0  0  0  0  0  0  0  0
   13.4150    4.8890   22.4430 C   0  0  0  0  0  0  0  0  0  0  0  0
   13.5680    5.8650   21.7370 O   0  0  0  0  0  0  0  0  0  0  0  0
   14.4220    4.3990   23.1760 O   0  0  0  0  0  0  0  0  0  0  0  0
  1  2  1  0
  3  2  1  1
  3 21  1  0
  3  4  1  0
  4  5  1  0
  5 20  2  0
  5  6  1  0
  6  7  2  0
  7  8  1  0
  8  9  2  0
  9 10  1  0
  9 20  1  0
 10 11  1  0
 11 12  2  0
 11 13  1  0
 13 14  1  0
 14 15  2  0
 14 19  1  0
 15 16  1  0
 16 17  2  0
 17 18  1  0
 18 19  2  0
 21 22  2  0
 21 23  1  0
M  END
