WPC2235_minimised.pdb
     RDKit          3D

 23 24  0  0  0  0  0  0  0  0999 V2000
   10.4640    5.5860   24.6870 O   0  0  0  0  0  0  0  0  0  0  0  0
   10.5400    5.3130   23.5010 C   0  0  0  0  0  0  0  0  0  0  0  0
    9.8190    6.0370   22.6170 O   0  0  0  0  0  0  0  0  0  0  0  0
   11.4700    4.2920   22.9000 C   0  0  0  0  0  0  0  0  0  0  0  0
   12.0000    3.3660   23.6320 N   0  0  0  0  0  0  0  0  0  0  0  0
   11.0930    2.7360   24.4990 O   0  0  0  0  0  0  0  0  0  0  0  0
   11.5170    1.3990   24.7990 C   0  0  0  0  0  0  0  0  0  0  0  0
   11.1370    0.4750   23.6630 C   0  0  0  0  0  0  0  0  0  0  0  0
   12.1210   -0.1580   22.8830 C   0  0  0  0  0  0  0  0  0  0  0  0
   11.7460   -1.0650   21.8820 C   0  0  0  0  0  0  0  0  0  0  0  0
   10.3850   -1.2910   21.6280 C   0  0  0  0  0  0  0  0  0  0  0  0
    9.4050   -0.5930   22.3470 C   0  0  0  0  0  0  0  0  0  0  0  0
    8.0580   -0.6420   21.9450 N   0  0  0  0  0  0  0  0  0  0  0  0
    7.6390   -0.2250   20.7130 C   0  0  0  0  0  0  0  0  0  0  0  0
    8.3900    0.0510   19.7970 O   0  0  0  0  0  0  0  0  0  0  0  0
    6.2830   -0.1040   20.6130 N   0  0  0  0  0  0  0  0  0  0  0  0
    5.6190    0.5020   19.5220 C   0  0  0  0  0  0  0  0  0  0  0  0
    4.6700    1.5000   19.7700 C   0  0  0  0  0  0  0  0  0  0  0  0
    4.1400    2.1800   18.6660 C   0  0  0  0  0  0  0  0  0  0  0  0
    4.5820    1.8560   17.3750 C   0  0  0  0  0  0  0  0  0  0  0  0
    5.4650    0.8630   17.1250 N   0  0  0  0  0  0  0  0  0  0  0  0
    5.9770    0.2130   18.1870 C   0  0  0  0  0  0  0  0  0  0  0  0
    9.7780    0.2650   23.3830 C   0  0  0  0  0  0  0  0  0  0  0  0
  1  2  2  0
  2  3  1  0
  2  4  1  0
  4  5  2  0
  5  6  1  0
  6  7  1  0
  7  8  1  0
  8 23  2  0
  8  9  1  0
  9 10  2  0
 10 11  1  0
 11 12  2  0
 12 13  1  0
 12 23  1  0
 13 14  1  0
 14 15  2  0
 14 16  1  0
 16 17  1  0
 17 18  2  0
 17 22  1  0
 18 19  1  0
 19 20  2  0
 20 21  1  0
 21 22  2  0
M  END
