WPC2526_minimised.pdb
     RDKit          3D

 22 23  0  0  0  0  0  0  0  0999 V2000
   13.2340    5.1030   23.3100 C   0  0  0  0  0  0  0  0  0  0  0  0
   12.5300    3.7750   22.9950 C   0  0  0  0  0  0  0  0  0  0  0  0
   11.4430    3.4830   23.9540 N   0  0  0  0  0  0  0  0  0  0  0  0
   10.0940    3.8870   23.4910 C   0  0  0  0  0  0  0  0  0  0  0  0
    9.8870    5.4090   23.3850 C   0  0  0  0  0  0  0  0  0  0  0  0
   11.4790    2.0900   24.4580 C   0  0  0  0  0  0  0  0  0  0  0  0
   11.1860    1.0020   23.4410 C   0  0  0  0  0  0  0  0  0  0  0  0
   12.2370    0.2980   22.8220 C   0  0  0  0  0  0  0  0  0  0  0  0
   11.9560   -0.7620   21.9450 C   0  0  0  0  0  0  0  0  0  0  0  0
   10.6230   -1.1060   21.6750 C   0  0  0  0  0  0  0  0  0  0  0  0
    9.5770   -0.3850   22.2660 C   0  0  0  0  0  0  0  0  0  0  0  0
    8.2440   -0.6010   21.8740 N   0  0  0  0  0  0  0  0  0  0  0  0
    7.7770   -0.2660   20.6350 C   0  0  0  0  0  0  0  0  0  0  0  0
    8.4920    0.0140   19.6930 O   0  0  0  0  0  0  0  0  0  0  0  0
    6.4130   -0.2020   20.5670 N   0  0  0  0  0  0  0  0  0  0  0  0
    5.7140    0.4150   19.5040 C   0  0  0  0  0  0  0  0  0  0  0  0
    4.7810    1.4190   19.7910 C   0  0  0  0  0  0  0  0  0  0  0  0
    4.2340    2.1250   18.7110 C   0  0  0  0  0  0  0  0  0  0  0  0
    4.6460    1.8240   17.4050 C   0  0  0  0  0  0  0  0  0  0  0  0
    5.5120    0.8250   17.1190 N   0  0  0  0  0  0  0  0  0  0  0  0
    6.0380    0.1470   18.1570 C   0  0  0  0  0  0  0  0  0  0  0  0
    9.8570    0.6480   23.1650 C   0  0  0  0  0  0  0  0  0  0  0  0
  1  2  1  0
  2  3  1  0
  3  4  1  0
  3  6  1  0
  4  5  1  0
  6  7  1  0
  7 22  2  0
  7  8  1  0
  8  9  2  0
  9 10  1  0
 10 11  2  0
 11 12  1  0
 11 22  1  0
 12 13  1  0
 13 14  2  0
 13 15  1  0
 15 16  1  0
 16 17  2  0
 16 21  1  0
 17 18  1  0
 18 19  2  0
 19 20  1  0
 20 21  2  0
M  END
