WPC2068_minimised.pdb
     RDKit          3D

 24 25  0  0  0  0  0  0  0  0999 V2000
   13.7940    5.4490   21.6600 C   0  0  0  0  0  0  0  0  0  0  0  0
   13.0140    5.1470   22.9210 C   0  0  0  0  0  0  0  0  0  0  0  0
   13.5310    4.7630   23.9590 O   0  0  0  0  0  0  0  0  0  0  0  0
   11.6740    5.4210   22.7780 O   0  0  0  0  0  0  0  0  0  0  0  0
   10.9870    5.1300   23.9990 N   0  0  0  0  0  0  0  0  0  0  0  0
   10.1480    4.0410   23.8990 C   0  0  0  0  0  0  0  0  0  0  0  0
    9.0130    4.1680   23.3410 N   0  0  0  0  0  0  0  0  0  0  0  0
   10.6160    2.7810   24.5980 C   0  0  0  0  0  0  0  0  0  0  0  0
   10.6980    1.5680   23.6870 C   0  0  0  0  0  0  0  0  0  0  0  0
   11.9300    1.0430   23.2540 C   0  0  0  0  0  0  0  0  0  0  0  0
   11.9580   -0.0620   22.3830 C   0  0  0  0  0  0  0  0  0  0  0  0
   10.7550   -0.6390   21.9390 C   0  0  0  0  0  0  0  0  0  0  0  0
    9.5300   -0.1150   22.3790 C   0  0  0  0  0  0  0  0  0  0  0  0
    8.2960   -0.5720   21.8820 N   0  0  0  0  0  0  0  0  0  0  0  0
    7.8730   -0.3000   20.6140 C   0  0  0  0  0  0  0  0  0  0  0  0
    8.6110   -0.0680   19.6790 O   0  0  0  0  0  0  0  0  0  0  0  0
    6.5120   -0.2240   20.5190 N   0  0  0  0  0  0  0  0  0  0  0  0
    5.8300    0.4160   19.4590 C   0  0  0  0  0  0  0  0  0  0  0  0
    4.9000    1.4210   19.7560 C   0  0  0  0  0  0  0  0  0  0  0  0
    4.3480    2.1350   18.6850 C   0  0  0  0  0  0  0  0  0  0  0  0
    4.7570    1.8460   17.3750 C   0  0  0  0  0  0  0  0  0  0  0  0
    5.6270    0.8540   17.0790 N   0  0  0  0  0  0  0  0  0  0  0  0
    6.1570    0.1660   18.1100 C   0  0  0  0  0  0  0  0  0  0  0  0
    9.5060    0.9720   23.2570 C   0  0  0  0  0  0  0  0  0  0  0  0
  1  2  1  0
  2  3  2  0
  2  4  1  0
  4  5  1  0
  5  6  1  0
  6  7  2  0
  6  8  1  0
  8  9  1  0
  9 24  2  0
  9 10  1  0
 10 11  2  0
 11 12  1  0
 12 13  2  0
 13 14  1  0
 13 24  1  0
 14 15  1  0
 15 16  2  0
 15 17  1  0
 17 18  1  0
 18 19  2  0
 18 23  1  0
 19 20  1  0
 20 21  2  0
 21 22  1  0
 22 23  2  0
M  END
