WPC2561_minimised.pdb
     RDKit          3D

 23 24  0  0  1  0  0  0  0  0999 V2000
   12.2910    6.3060   24.6260 C   0  0  0  0  0  0  0  0  0  0  0  0
   10.8770    6.1730   24.2320 N   0  0  0  0  0  0  0  0  0  0  0  0
   10.6000    5.2520   23.1070 C   0  0  2  0  0  0  0  0  0  0  0  0
    9.0730    5.2120   22.9050 C   0  0  0  0  0  0  0  0  0  0  0  0
   11.2010    3.8210   23.2580 C   0  0  0  0  0  0  0  0  0  0  0  0
   10.7580    3.1360   24.4900 N   0  0  0  0  0  0  0  0  0  0  0  0
   11.3170    1.7930   24.6960 C   0  0  0  0  0  0  0  0  0  0  0  0
   10.9900    0.7980   23.6040 C   0  0  0  0  0  0  0  0  0  0  0  0
   12.0240    0.1260   22.9260 C   0  0  0  0  0  0  0  0  0  0  0  0
   11.7200   -0.8500   21.9640 C   0  0  0  0  0  0  0  0  0  0  0  0
   10.3790   -1.1230   21.6570 C   0  0  0  0  0  0  0  0  0  0  0  0
    9.3520   -0.4140   22.2930 C   0  0  0  0  0  0  0  0  0  0  0  0
    8.0200   -0.5420   21.8620 N   0  0  0  0  0  0  0  0  0  0  0  0
    7.6190   -0.2240   20.5970 C   0  0  0  0  0  0  0  0  0  0  0  0
    8.3790   -0.0400   19.6650 O   0  0  0  0  0  0  0  0  0  0  0  0
    6.2660   -0.0650   20.4910 N   0  0  0  0  0  0  0  0  0  0  0  0
    5.6210    0.5610   19.4010 C   0  0  0  0  0  0  0  0  0  0  0  0
    4.6790    1.5660   19.6540 C   0  0  0  0  0  0  0  0  0  0  0  0
    4.1750    2.2740   18.5560 C   0  0  0  0  0  0  0  0  0  0  0  0
    4.6410    1.9790   17.2670 C   0  0  0  0  0  0  0  0  0  0  0  0
    5.5160    0.9800   17.0120 N   0  0  0  0  0  0  0  0  0  0  0  0
    5.9950    0.2940   18.0670 C   0  0  0  0  0  0  0  0  0  0  0  0
    9.6520    0.5250   23.2830 C   0  0  0  0  0  0  0  0  0  0  0  0
  1  2  1  0
  2  3  1  0
  3  4  1  1
  3  5  1  0
  5  6  1  0
  6  7  1  0
  7  8  1  0
  8 23  2  0
  8  9  1  0
  9 10  2  0
 10 11  1  0
 11 12  2  0
 12 13  1  0
 12 23  1  0
 13 14  1  0
 14 15  2  0
 14 16  1  0
 16 17  1  0
 17 18  2  0
 17 22  1  0
 18 19  1  0
 19 20  2  0
 20 21  1  0
 21 22  2  0
M  END
