WPC2038_minimised.pdb
     RDKit          3D

 23 25  0  0  0  0  0  0  0  0999 V2000
    8.6320   -0.1070   19.8120 O   0  0  0  0  0  0  0  0  0  0  0  0
    7.9390   -0.4060   20.7630 C   0  0  0  0  0  0  0  0  0  0  0  0
    6.5720   -0.3450   20.7150 N   0  0  0  0  0  0  0  0  0  0  0  0
    5.8550    0.2710   19.6600 C   0  0  0  0  0  0  0  0  0  0  0  0
    4.9280    1.2780   19.9600 C   0  0  0  0  0  0  0  0  0  0  0  0
    4.3590    1.9810   18.8890 C   0  0  0  0  0  0  0  0  0  0  0  0
    4.7380    1.6690   17.5750 C   0  0  0  0  0  0  0  0  0  0  0  0
    5.5960    0.6680   17.2750 N   0  0  0  0  0  0  0  0  0  0  0  0
    6.1490   -0.0020   18.3060 C   0  0  0  0  0  0  0  0  0  0  0  0
    8.4390   -0.7740   21.9820 N   0  0  0  0  0  0  0  0  0  0  0  0
    9.7810   -0.5580   22.3540 C   0  0  0  0  0  0  0  0  0  0  0  0
   10.8340   -1.1570   21.6520 C   0  0  0  0  0  0  0  0  0  0  0  0
   12.1630   -0.7760   21.9000 C   0  0  0  0  0  0  0  0  0  0  0  0
   12.4340    0.2040   22.8690 C   0  0  0  0  0  0  0  0  0  0  0  0
   11.3810    0.7640   23.6150 C   0  0  0  0  0  0  0  0  0  0  0  0
   11.6510    1.7670   24.7180 C   0  0  0  0  0  0  0  0  0  0  0  0
   11.5130    3.1790   24.3200 N   0  0  0  0  0  0  0  0  0  0  0  0
   12.7200    3.8040   23.7280 C   0  0  0  0  0  0  0  0  0  0  0  0
   12.4580    5.2110   23.1180 C   0  0  0  0  0  0  0  0  0  0  0  0
   11.2910    5.8980   23.7240 N   0  0  0  0  0  0  0  0  0  0  0  0
   10.0440    5.1050   23.5990 C   0  0  0  0  0  0  0  0  0  0  0  0
   10.2550    3.5630   23.6390 C   0  0  0  0  0  0  0  0  0  0  0  0
   10.0580    0.3700   23.3600 C   0  0  0  0  0  0  0  0  0  0  0  0
  1  2  2  0
  2  3  1  0
  2 10  1  0
  3  4  1  0
  4  5  2  0
  4  9  1  0
  5  6  1  0
  6  7  2  0
  7  8  1  0
  8  9  2  0
 10 11  1  0
 11 23  1  0
 11 12  2  0
 12 13  1  0
 13 14  2  0
 14 15  1  0
 15 16  1  0
 15 23  2  0
 16 17  1  0
 17 18  1  0
 17 22  1  0
 18 19  1  0
 19 20  1  0
 20 21  1  0
 21 22  1  0
M  END
