WPC2904_minimised.pdb
     RDKit          3D

 19 20  0  0  0  0  0  0  0  0999 V2000
   13.7580   -0.7590   21.1470 C   0  0  0  0  0  0  0  0  0  0  0  0
   13.0730   -1.2470   22.7660 S   0  0  1  0  0  0  0  0  0  0  0  0
   14.4990   -0.8710   23.5910 O   0  0  0  0  0  0  0  0  0  0  0  0
   11.9700    0.1530   22.8480 C   0  0  0  0  0  0  0  0  0  0  0  0
   10.6110   -0.0620   22.6030 C   0  0  0  0  0  0  0  0  0  0  0  0
    9.7230    1.0190   22.6110 C   0  0  0  0  0  0  0  0  0  0  0  0
   12.4490    1.4470   23.1010 C   0  0  0  0  0  0  0  0  0  0  0  0
   11.5600    2.5350   23.1030 C   0  0  0  0  0  0  0  0  0  0  0  0
    8.3710    0.8050   22.2940 N   0  0  0  0  0  0  0  0  0  0  0  0
   10.1930    2.3190   22.8590 C   0  0  0  0  0  0  0  0  0  0  0  0
    7.9030    0.6240   21.0240 C   0  0  0  0  0  0  0  0  0  0  0  0
    8.6080    0.5400   20.0390 O   0  0  0  0  0  0  0  0  0  0  0  0
    6.5390    0.6040   20.9430 N   0  0  0  0  0  0  0  0  0  0  0  0
    5.8110    0.8910   19.7650 C   0  0  0  0  0  0  0  0  0  0  0  0
    6.1590    0.3600   18.5000 C   0  0  0  0  0  0  0  0  0  0  0  0
    4.7960    1.8510   19.8420 C   0  0  0  0  0  0  0  0  0  0  0  0
    5.5770    0.7510   17.3440 N   0  0  0  0  0  0  0  0  0  0  0  0
    4.2060    2.2720   18.6450 C   0  0  0  0  0  0  0  0  0  0  0  0
    4.6510    1.7330   17.4300 C   0  0  0  0  0  0  0  0  0  0  0  0
  2  1  1  6
  2  4  1  0
  2  3  1  0
  4  5  2  0
  4  7  1  0
  5  6  1  0
  6 10  2  0
  6  9  1  0
  7  8  2  0
  8 10  1  0
  9 11  1  0
 11 12  2  0
 11 13  1  0
 13 14  1  0
 14 15  2  0
 14 16  1  0
 15 17  1  0
 16 18  2  0
 17 19  2  0
 18 19  1  0
M  END
