WPC2448_minimised.pdb
     RDKit          3D

 23 24  0  0  0  0  0  0  0  0999 V2000
   12.7580    5.1910   22.7820 C   0  0  0  0  0  0  0  0  0  0  0  0
   11.6750    5.7530   24.0810 S   0  0  0  0  0  0  0  0  0  0  0  0
   12.4940    6.4570   25.0400 O   0  0  0  0  0  0  0  0  0  0  0  0
   10.4980    6.3910   23.5340 O   0  0  0  0  0  0  0  0  0  0  0  0
   11.1500    4.2690   24.8900 C   0  0  0  0  0  0  0  0  0  0  0  0
   10.4730    3.2300   23.9920 C   0  0  0  0  0  0  0  0  0  0  0  0
   10.3120    1.7320   25.0300 S   0  0  0  0  0  0  0  0  0  0  0  0
   10.1890    0.4800   23.7970 C   0  0  0  0  0  0  0  0  0  0  0  0
   11.3380   -0.1440   23.2880 C   0  0  0  0  0  0  0  0  0  0  0  0
   11.2160   -1.1120   22.2770 C   0  0  0  0  0  0  0  0  0  0  0  0
    9.9470   -1.4140   21.7570 C   0  0  0  0  0  0  0  0  0  0  0  0
    8.8120   -0.7530   22.2500 C   0  0  0  0  0  0  0  0  0  0  0  0
    7.5640   -0.8790   21.6290 N   0  0  0  0  0  0  0  0  0  0  0  0
    7.3220   -0.3870   20.3820 C   0  0  0  0  0  0  0  0  0  0  0  0
    8.1830   -0.1370   19.5600 O   0  0  0  0  0  0  0  0  0  0  0  0
    5.9960   -0.1300   20.1850 N   0  0  0  0  0  0  0  0  0  0  0  0
    5.4700    0.6170   19.1090 C   0  0  0  0  0  0  0  0  0  0  0  0
    4.5140    1.6080   19.3600 C   0  0  0  0  0  0  0  0  0  0  0  0
    4.1030    2.4000   18.2810 C   0  0  0  0  0  0  0  0  0  0  0  0
    4.6800    2.2050   17.0180 C   0  0  0  0  0  0  0  0  0  0  0  0
    5.5820    1.2300   16.7650 N   0  0  0  0  0  0  0  0  0  0  0  0
    5.9610    0.4570   17.7980 C   0  0  0  0  0  0  0  0  0  0  0  0
    8.9290    0.1770   23.2830 C   0  0  0  0  0  0  0  0  0  0  0  0
  1  2  1  0
  2  3  2  0
  2  4  2  0
  2  5  1  0
  5  6  1  0
  6  7  1  0
  7  8  1  0
  8 23  2  0
  8  9  1  0
  9 10  2  0
 10 11  1  0
 11 12  2  0
 12 13  1  0
 12 23  1  0
 13 14  1  0
 14 15  2  0
 14 16  1  0
 16 17  1  0
 17 18  2  0
 17 22  1  0
 18 19  1  0
 19 20  2  0
 20 21  1  0
 21 22  2  0
M  END
