WPC2074_minimised.pdb
     RDKit          3D

 23 24  0  0  0  0  0  0  0  0999 V2000
   12.7340    5.8230   23.7630 N   0  0  0  0  0  0  0  0  0  0  0  0
   13.2650    4.8230   23.0360 C   0  0  0  0  0  0  0  0  0  0  0  0
   14.2390    5.0100   22.3500 O   0  0  0  0  0  0  0  0  0  0  0  0
   12.7330    3.5920   23.2110 N   0  0  0  0  0  0  0  0  0  0  0  0
   11.7140    3.1680   24.0200 C   0  0  0  0  0  0  0  0  0  0  0  0
   10.9420    3.9380   24.5620 O   0  0  0  0  0  0  0  0  0  0  0  0
   11.7380    1.6850   24.3710 C   0  0  0  0  0  0  0  0  0  0  0  0
   11.2890    0.7330   23.2890 C   0  0  0  0  0  0  0  0  0  0  0  0
   12.2240   -0.0800   22.6230 C   0  0  0  0  0  0  0  0  0  0  0  0
   11.7820   -1.0830   21.7480 C   0  0  0  0  0  0  0  0  0  0  0  0
   10.4070   -1.2560   21.5280 C   0  0  0  0  0  0  0  0  0  0  0  0
    9.4810   -0.4120   22.1540 C   0  0  0  0  0  0  0  0  0  0  0  0
    8.1150   -0.4840   21.8320 N   0  0  0  0  0  0  0  0  0  0  0  0
    7.6350   -0.2160   20.5830 C   0  0  0  0  0  0  0  0  0  0  0  0
    8.3450   -0.0860   19.6050 O   0  0  0  0  0  0  0  0  0  0  0  0
    6.2790   -0.0530   20.5440 N   0  0  0  0  0  0  0  0  0  0  0  0
    5.5820    0.5420   19.4670 C   0  0  0  0  0  0  0  0  0  0  0  0
    4.6490    1.5490   19.7370 C   0  0  0  0  0  0  0  0  0  0  0  0
    4.1030    2.2390   18.6470 C   0  0  0  0  0  0  0  0  0  0  0  0
    4.5200    1.9190   17.3460 C   0  0  0  0  0  0  0  0  0  0  0  0
    5.3780    0.9100   17.0760 N   0  0  0  0  0  0  0  0  0  0  0  0
    5.8990    0.2450   18.1240 C   0  0  0  0  0  0  0  0  0  0  0  0
    9.9190    0.5730   23.0440 C   0  0  0  0  0  0  0  0  0  0  0  0
  1  2  1  0
  2  3  2  0
  2  4  1  0
  4  5  1  0
  5  6  2  0
  5  7  1  0
  7  8  1  0
  8 23  2  0
  8  9  1  0
  9 10  2  0
 10 11  1  0
 11 12  2  0
 12 13  1  0
 12 23  1  0
 13 14  1  0
 14 15  2  0
 14 16  1  0
 16 17  1  0
 17 18  2  0
 17 22  1  0
 18 19  1  0
 19 20  2  0
 20 21  1  0
 21 22  2  0
M  END
