WPC2808_minimised.pdb
     RDKit          3D

 18 19  0  0  0  0  0  0  0  0999 V2000
   13.9540   -1.0710   20.4450 S   0  0  0  0  0  0  0  0  0  0  0  0
   13.4940   -1.1440   22.2160 C   0  0  0  0  0  0  0  0  0  0  0  0
   12.3950   -0.1550   22.5500 C   0  0  0  0  0  0  0  0  0  0  0  0
   11.0520   -0.4710   22.2790 C   0  0  0  0  0  0  0  0  0  0  0  0
   10.0340    0.4370   22.6110 C   0  0  0  0  0  0  0  0  0  0  0  0
   12.7130    1.0850   23.1340 C   0  0  0  0  0  0  0  0  0  0  0  0
   11.6950    1.9990   23.4490 C   0  0  0  0  0  0  0  0  0  0  0  0
    8.6890    0.1580   22.2900 N   0  0  0  0  0  0  0  0  0  0  0  0
   10.3550    1.6690   23.1960 C   0  0  0  0  0  0  0  0  0  0  0  0
    8.1870    0.2110   21.0210 C   0  0  0  0  0  0  0  0  0  0  0  0
    8.8810    0.3270   20.0330 O   0  0  0  0  0  0  0  0  0  0  0  0
    6.8200    0.1840   20.9570 N   0  0  0  0  0  0  0  0  0  0  0  0
    6.0680    0.5820   19.8240 C   0  0  0  0  0  0  0  0  0  0  0  0
    6.3810    0.1490   18.5150 C   0  0  0  0  0  0  0  0  0  0  0  0
    5.0640    1.5430   19.9950 C   0  0  0  0  0  0  0  0  0  0  0  0
    5.7690    0.6250   17.4090 N   0  0  0  0  0  0  0  0  0  0  0  0
    4.4420    2.0490   18.8490 C   0  0  0  0  0  0  0  0  0  0  0  0
    4.8460    1.5970   17.5850 C   0  0  0  0  0  0  0  0  0  0  0  0
  1  2  1  0
  2  3  1  0
  3  4  2  0
  3  6  1  0
  4  5  1  0
  5  9  2  0
  5  8  1  0
  6  7  2  0
  7  9  1  0
  8 10  1  0
 10 11  2  0
 10 12  1  0
 12 13  1  0
 13 14  2  0
 13 15  1  0
 14 16  1  0
 15 17  2  0
 16 18  2  0
 17 18  1  0
M  END
