WPC2004_minimised.pdb
     RDKit          3D

 20 21  0  0  0  0  0  0  0  0999 V2000
   12.2580    6.2290   24.4180 C   0  0  0  0  0  0  0  0  0  0  0  0
   12.2210    5.0340   23.0270 S   0  0  1  0  0  0  0  0  0  0  0  0
   13.7800    4.4810   23.3980 O   0  0  0  0  0  0  0  0  0  0  0  0
   11.3520    3.6950   23.9670 C   0  0  0  0  0  0  0  0  0  0  0  0
   11.2650    2.3340   23.2730 C   0  0  0  0  0  0  0  0  0  0  0  0
   12.4080    1.5480   23.0260 C   0  0  0  0  0  0  0  0  0  0  0  0
   12.2950    0.2860   22.4180 C   0  0  0  0  0  0  0  0  0  0  0  0
   11.0270   -0.2240   22.0950 C   0  0  0  0  0  0  0  0  0  0  0  0
    9.8830    0.5330   22.3800 C   0  0  0  0  0  0  0  0  0  0  0  0
    8.5920    0.0540   22.0960 N   0  0  0  0  0  0  0  0  0  0  0  0
    8.0440   -0.0130   20.8480 C   0  0  0  0  0  0  0  0  0  0  0  0
    8.6730    0.0300   19.8110 O   0  0  0  0  0  0  0  0  0  0  0  0
    6.6760   -0.0610   20.8540 N   0  0  0  0  0  0  0  0  0  0  0  0
    5.8870    0.3560   19.7570 C   0  0  0  0  0  0  0  0  0  0  0  0
    4.9230    1.3490   19.9700 C   0  0  0  0  0  0  0  0  0  0  0  0
    4.2810    1.8860   18.8480 C   0  0  0  0  0  0  0  0  0  0  0  0
    4.6290    1.4280   17.5680 C   0  0  0  0  0  0  0  0  0  0  0  0
    5.5150    0.4300   17.3540 N   0  0  0  0  0  0  0  0  0  0  0  0
    6.1420   -0.0770   18.4360 C   0  0  0  0  0  0  0  0  0  0  0  0
   10.0030    1.8000   22.9620 C   0  0  0  0  0  0  0  0  0  0  0  0
  2  1  1  1
  2  3  1  0
  2  4  1  0
  4  5  1  0
  5 20  2  0
  5  6  1  0
  6  7  2  0
  7  8  1  0
  8  9  2  0
  9 10  1  0
  9 20  1  0
 10 11  1  0
 11 12  2  0
 11 13  1  0
 13 14  1  0
 14 15  2  0
 14 19  1  0
 15 16  1  0
 16 17  2  0
 17 18  1  0
 18 19  2  0
M  END
