WPC2077_minimised.pdb
     RDKit          3D

 24 26  0  0  1  0  0  0  0  0999 V2000
    8.8450    0.1940   20.1470 O   0  0  0  0  0  0  0  0  0  0  0  0
    8.2130   -0.6800   20.7070 C   0  0  0  0  0  0  0  0  0  0  0  0
    6.8780   -0.8650   20.4880 N   0  0  0  0  0  0  0  0  0  0  0  0
    6.1210   -0.0910   19.5780 C   0  0  0  0  0  0  0  0  0  0  0  0
    5.2620    0.9130   20.0430 C   0  0  0  0  0  0  0  0  0  0  0  0
    4.6280    1.7240   19.0880 C   0  0  0  0  0  0  0  0  0  0  0  0
    4.8790    1.5130   17.7220 C   0  0  0  0  0  0  0  0  0  0  0  0
    5.7000    0.5380   17.2710 N   0  0  0  0  0  0  0  0  0  0  0  0
    6.3180   -0.2300   18.1910 C   0  0  0  0  0  0  0  0  0  0  0  0
    8.7400   -1.5450   21.6280 N   0  0  0  0  0  0  0  0  0  0  0  0
    9.8870   -1.2520   22.3880 C   0  0  0  0  0  0  0  0  0  0  0  0
   11.1220   -0.9240   21.8060 C   0  0  0  0  0  0  0  0  0  0  0  0
   12.1380   -0.3460   22.5850 C   0  0  0  0  0  0  0  0  0  0  0  0
   11.8890   -0.0480   23.9350 C   0  0  0  0  0  0  0  0  0  0  0  0
   10.6540   -0.3920   24.5130 C   0  0  0  0  0  0  0  0  0  0  0  0
   10.2390    0.1370   25.8680 C   0  0  0  0  0  0  0  0  0  0  0  0
    9.5060    1.5000   25.7560 C   0  0  1  0  0  0  0  0  0  0  0  0
   10.3250    2.6140   25.0340 C   0  0  0  0  0  0  0  0  0  0  0  0
   10.0280    2.7160   23.5570 C   0  0  0  0  0  0  0  0  0  0  0  0
    8.9290    2.1680   23.0120 C   0  0  0  0  0  0  0  0  0  0  0  0
    7.9380    1.4160   23.8150 C   0  0  0  0  0  0  0  0  0  0  0  0
    6.9120    0.9690   23.3360 O   0  0  0  0  0  0  0  0  0  0  0  0
    8.2040    1.2940   25.1520 O   0  0  0  0  0  0  0  0  0  0  0  0
    9.6870   -1.0570   23.7530 C   0  0  0  0  0  0  0  0  0  0  0  0
  1  2  2  0
  2 10  1  0
  2  3  1  0
  3  4  1  0
  4  5  2  0
  4  9  1  0
  5  6  1  0
  6  7  2  0
  7  8  1  0
  8  9  2  0
 10 11  1  0
 11 12  2  0
 11 24  1  0
 12 13  1  0
 13 14  2  0
 14 15  1  0
 15 16  1  0
 15 24  2  0
 17 16  1  6
 17 18  1  0
 17 23  1  0
 18 19  1  0
 19 20  2  0
 20 21  1  0
 21 22  2  0
 21 23  1  0
M  END
