WPC2081_minimised.pdb
     RDKit          3D

 24 26  0  0  1  0  0  0  0  0999 V2000
    8.5660   -0.0600   19.7090 O   0  0  0  0  0  0  0  0  0  0  0  0
    7.8310   -0.3330   20.6380 C   0  0  0  0  0  0  0  0  0  0  0  0
    6.4690   -0.2560   20.5510 N   0  0  0  0  0  0  0  0  0  0  0  0
    5.7890    0.3870   19.4900 C   0  0  0  0  0  0  0  0  0  0  0  0
    4.8580    1.3900   19.7850 C   0  0  0  0  0  0  0  0  0  0  0  0
    4.3290    2.1230   18.7140 C   0  0  0  0  0  0  0  0  0  0  0  0
    4.7600    1.8500   17.4070 C   0  0  0  0  0  0  0  0  0  0  0  0
    5.6250    0.8540   17.1120 N   0  0  0  0  0  0  0  0  0  0  0  0
    6.1310    0.1480   18.1420 C   0  0  0  0  0  0  0  0  0  0  0  0
    8.2760   -0.6620   21.8870 N   0  0  0  0  0  0  0  0  0  0  0  0
    9.5840   -0.3610   22.3040 C   0  0  0  0  0  0  0  0  0  0  0  0
   10.6870   -1.0360   21.7610 C   0  0  0  0  0  0  0  0  0  0  0  0
   11.9870   -0.5820   22.0310 C   0  0  0  0  0  0  0  0  0  0  0  0
   12.1720    0.5590   22.8280 C   0  0  0  0  0  0  0  0  0  0  0  0
   11.0650    1.2350   23.3720 C   0  0  0  0  0  0  0  0  0  0  0  0
   11.2700    2.4610   24.2430 C   0  0  0  0  0  0  0  0  0  0  0  0
   11.4240    3.8260   23.5240 C   0  0  1  0  0  0  0  0  0  0  0  0
   12.2570    3.7270   22.3690 O   0  0  0  0  0  0  0  0  0  0  0  0
   10.1260    4.5160   23.1950 C   0  0  0  0  0  0  0  0  0  0  0  0
    9.1070    3.9840   22.4490 C   0  0  0  0  0  0  0  0  0  0  0  0
    8.2440    5.0780   22.1960 C   0  0  0  0  0  0  0  0  0  0  0  0
    8.8450    6.1500   22.8000 C   0  0  0  0  0  0  0  0  0  0  0  0
    9.9910    5.8470   23.4790 O   0  0  0  0  0  0  0  0  0  0  0  0
    9.7730    0.7460   23.1380 C   0  0  0  0  0  0  0  0  0  0  0  0
  1  2  2  0
  2  3  1  0
  2 10  1  0
  3  4  1  0
  4  5  2  0
  4  9  1  0
  5  6  1  0
  6  7  2  0
  7  8  1  0
  8  9  2  0
 10 11  1  0
 11 24  1  0
 11 12  2  0
 12 13  1  0
 13 14  2  0
 14 15  1  0
 15 16  1  0
 15 24  2  0
 16 17  1  0
 17 18  1  6
 17 19  1  0
 19 20  2  0
 19 23  1  0
 20 21  1  0
 21 22  2  0
 22 23  1  0
M  END
