WPC2709_minimised.pdb
     RDKit          3D

 22 23  0  0  1  0  0  0  0  0999 V2000
   15.8040    0.8990   19.7410 C   0  0  0  0  0  0  0  0  0  0  0  0
   14.7260    0.3750   20.5390 O   0  0  0  0  0  0  0  0  0  0  0  0
   14.5130    0.8620   21.7990 C   0  0  0  0  0  0  0  0  0  0  0  0
   15.3040    1.5730   22.3880 O   0  0  0  0  0  0  0  0  0  0  0  0
   13.3370    0.1910   22.5230 C   0  0  2  0  0  0  0  0  0  0  0  0
   13.0630   -1.2420   21.9900 C   0  0  0  0  0  0  0  0  0  0  0  0
   12.1030    1.1020   22.6030 C   0  0  0  0  0  0  0  0  0  0  0  0
   10.7930    0.6130   22.4030 C   0  0  0  0  0  0  0  0  0  0  0  0
    9.6830    1.4570   22.5510 C   0  0  0  0  0  0  0  0  0  0  0  0
   12.2650    2.4620   22.9410 C   0  0  0  0  0  0  0  0  0  0  0  0
   11.1560    3.3110   23.0680 C   0  0  0  0  0  0  0  0  0  0  0  0
    8.3820    0.9760   22.2940 N   0  0  0  0  0  0  0  0  0  0  0  0
    9.8620    2.8060   22.8810 C   0  0  0  0  0  0  0  0  0  0  0  0
    7.9220    0.6800   21.0430 C   0  0  0  0  0  0  0  0  0  0  0  0
    8.6420    0.5970   20.0690 O   0  0  0  0  0  0  0  0  0  0  0  0
    6.5610    0.5600   20.9620 N   0  0  0  0  0  0  0  0  0  0  0  0
    5.8230    0.8260   19.7830 C   0  0  0  0  0  0  0  0  0  0  0  0
    6.1820    0.3080   18.5170 C   0  0  0  0  0  0  0  0  0  0  0  0
    4.7940    1.7720   19.8610 C   0  0  0  0  0  0  0  0  0  0  0  0
    5.6000    0.7000   17.3620 N   0  0  0  0  0  0  0  0  0  0  0  0
    4.2020    2.1910   18.6660 C   0  0  0  0  0  0  0  0  0  0  0  0
    4.6590    1.6680   17.4490 C   0  0  0  0  0  0  0  0  0  0  0  0
  1  2  1  0
  2  3  1  0
  3  4  2  0
  3  5  1  0
  5  6  1  6
  5  7  1  0
  7 10  2  0
  7  8  1  0
  8  9  2  0
  9 12  1  0
  9 13  1  0
 10 11  1  0
 11 13  2  0
 12 14  1  0
 14 15  2  0
 14 16  1  0
 16 17  1  0
 17 18  2  0
 17 19  1  0
 18 20  1  0
 19 21  2  0
 20 22  2  0
 21 22  1  0
M  END
