WPC2163_minimised.pdb
     RDKit          3D

 21 22  0  0  0  0  0  0  0  0999 V2000
   11.8330    6.3050   24.6320 C   0  0  0  0  0  0  0  0  0  0  0  0
   11.8590    4.8810   24.0630 C   0  0  0  0  0  0  0  0  0  0  0  0
   12.0420    4.8990   22.5420 C   0  0  0  0  0  0  0  0  0  0  0  0
   10.6010    4.2160   24.4190 N   0  0  0  0  0  0  0  0  0  0  0  0
   10.7230    2.8320   24.9020 C   0  0  0  0  0  0  0  0  0  0  0  0
   10.7750    1.7760   23.8190 C   0  0  0  0  0  0  0  0  0  0  0  0
   11.9970    1.3060   23.3020 C   0  0  0  0  0  0  0  0  0  0  0  0
   12.0080    0.2710   22.3510 C   0  0  0  0  0  0  0  0  0  0  0  0
   10.7980   -0.3000   21.9190 C   0  0  0  0  0  0  0  0  0  0  0  0
    9.5810    0.1690   22.4390 C   0  0  0  0  0  0  0  0  0  0  0  0
    8.3410   -0.3210   21.9860 N   0  0  0  0  0  0  0  0  0  0  0  0
    7.8700   -0.1270   20.7210 C   0  0  0  0  0  0  0  0  0  0  0  0
    8.5650    0.1740   19.7730 O   0  0  0  0  0  0  0  0  0  0  0  0
    6.5070   -0.2080   20.6340 N   0  0  0  0  0  0  0  0  0  0  0  0
    5.7740    0.3510   19.5630 C   0  0  0  0  0  0  0  0  0  0  0  0
    4.8240    1.3430   19.8350 C   0  0  0  0  0  0  0  0  0  0  0  0
    4.2490    2.0090   18.7450 C   0  0  0  0  0  0  0  0  0  0  0  0
    4.6470    1.6770   17.4430 C   0  0  0  0  0  0  0  0  0  0  0  0
    5.5330    0.6920   17.1710 N   0  0  0  0  0  0  0  0  0  0  0  0
    6.0910    0.0560   18.2200 C   0  0  0  0  0  0  0  0  0  0  0  0
    9.5740    1.2000   23.3840 C   0  0  0  0  0  0  0  0  0  0  0  0
  1  2  1  0
  2  3  1  0
  2  4  1  0
  4  5  1  0
  5  6  1  0
  6 21  2  0
  6  7  1  0
  7  8  2  0
  8  9  1  0
  9 10  2  0
 10 11  1  0
 10 21  1  0
 11 12  1  0
 12 13  2  0
 12 14  1  0
 14 15  1  0
 15 16  2  0
 15 20  1  0
 16 17  1  0
 17 18  2  0
 18 19  1  0
 19 20  2  0
M  END
