WPC2784_minimised.pdb
     RDKit          3D

 21 23  0  0  0  0  0  0  0  0999 V2000
   13.9940   -0.7400   20.8000 C   0  0  0  0  0  0  0  0  0  0  0  0
   14.9700    0.4350   20.8760 C   0  0  0  0  0  0  0  0  0  0  0  0
   15.1360    0.6390   22.3140 N   0  0  0  0  0  0  0  0  0  0  0  0
   13.9460    0.1310   22.9670 C   0  0  0  0  0  0  0  0  0  0  0  0
   12.7220    1.0510   22.8950 C   0  0  0  0  0  0  0  0  0  0  0  0
   11.4230    0.5010   22.8360 C   0  0  0  0  0  0  0  0  0  0  0  0
   10.2950    1.3350   22.7720 C   0  0  0  0  0  0  0  0  0  0  0  0
   12.8660    2.4540   22.8980 C   0  0  0  0  0  0  0  0  0  0  0  0
   11.7390    3.2880   22.8410 C   0  0  0  0  0  0  0  0  0  0  0  0
   13.8030   -1.0990   22.2060 N   0  0  0  0  0  0  0  0  0  0  0  0
    9.0020    0.7960   22.5750 N   0  0  0  0  0  0  0  0  0  0  0  0
   10.4550    2.7280   22.7770 C   0  0  0  0  0  0  0  0  0  0  0  0
    8.4420    0.6700   21.3320 C   0  0  0  0  0  0  0  0  0  0  0  0
    9.0850    0.8020   20.3140 O   0  0  0  0  0  0  0  0  0  0  0  0
    7.0890    0.4500   21.2980 N   0  0  0  0  0  0  0  0  0  0  0  0
    6.2950    0.6870   20.1440 C   0  0  0  0  0  0  0  0  0  0  0  0
    6.6180    0.1470   18.8760 C   0  0  0  0  0  0  0  0  0  0  0  0
    5.2480    1.6130   20.2330 C   0  0  0  0  0  0  0  0  0  0  0  0
    5.9760    0.4870   17.7350 N   0  0  0  0  0  0  0  0  0  0  0  0
    4.6020    1.9880   19.0490 C   0  0  0  0  0  0  0  0  0  0  0  0
    5.0140    1.4310   17.8290 C   0  0  0  0  0  0  0  0  0  0  0  0
  1  2  1  0
  1 10  1  0
  2  3  1  0
  3  4  1  0
  4 10  1  0
  4  5  1  0
  5  8  1  0
  5  6  2  0
  6  7  1  0
  7 11  1  0
  7 12  2  0
  8  9  2  0
  9 12  1  0
 11 13  1  0
 13 14  2  0
 13 15  1  0
 15 16  1  0
 16 17  2  0
 16 18  1  0
 17 19  1  0
 18 20  2  0
 19 21  2  0
 20 21  1  0
M  END
