WPC2060_minimised.pdb
     RDKit          3D

 24 26  0  0  0  0  0  0  0  0999 V2000
    8.8410    0.2270   20.1650 O   0  0  0  0  0  0  0  0  0  0  0  0
    8.1540   -0.3370   20.9930 C   0  0  0  0  0  0  0  0  0  0  0  0
    6.7940   -0.4010   20.8630 N   0  0  0  0  0  0  0  0  0  0  0  0
    6.0840    0.2310   19.8110 C   0  0  0  0  0  0  0  0  0  0  0  0
    5.1430    1.2270   20.1020 C   0  0  0  0  0  0  0  0  0  0  0  0
    4.5910    1.9380   19.0260 C   0  0  0  0  0  0  0  0  0  0  0  0
    4.9890    1.6350   17.7140 C   0  0  0  0  0  0  0  0  0  0  0  0
    5.8640    0.6470   17.4230 N   0  0  0  0  0  0  0  0  0  0  0  0
    6.4120   -0.0200   18.4600 C   0  0  0  0  0  0  0  0  0  0  0  0
    8.6530   -0.8990   22.1400 N   0  0  0  0  0  0  0  0  0  0  0  0
    9.9760   -0.6650   22.5650 C   0  0  0  0  0  0  0  0  0  0  0  0
   11.0560   -1.2150   21.8600 C   0  0  0  0  0  0  0  0  0  0  0  0
   12.3560   -0.7200   22.0560 C   0  0  0  0  0  0  0  0  0  0  0  0
   12.5600    0.3640   22.9260 C   0  0  0  0  0  0  0  0  0  0  0  0
   11.4740    0.8970   23.6380 C   0  0  0  0  0  0  0  0  0  0  0  0
   11.6480    2.4050   24.5510 S   0  0  0  0  0  0  0  0  0  0  0  0
   11.6370    3.7210   23.2600 C   0  0  0  0  0  0  0  0  0  0  0  0
   10.2270    4.0650   22.8310 C   0  0  0  0  0  0  0  0  0  0  0  0
    9.4140    3.1110   22.1970 C   0  0  0  0  0  0  0  0  0  0  0  0
    8.1050    3.4390   21.8440 C   0  0  0  0  0  0  0  0  0  0  0  0
    7.6990    4.7590   22.0460 C   0  0  0  0  0  0  0  0  0  0  0  0
    8.5910    5.6660   22.6450 C   0  0  0  0  0  0  0  0  0  0  0  0
    9.8160    5.3230   23.0810 N   0  0  0  0  0  0  0  0  0  0  0  0
   10.1980    0.3370   23.5140 C   0  0  0  0  0  0  0  0  0  0  0  0
  1  2  2  0
  2  3  1  0
  2 10  1  0
  3  4  1  0
  4  5  2  0
  4  9  1  0
  5  6  1  0
  6  7  2  0
  7  8  1  0
  8  9  2  0
 10 11  1  0
 11 24  1  0
 11 12  2  0
 12 13  1  0
 13 14  2  0
 14 15  1  0
 15 16  1  0
 15 24  2  0
 16 17  1  0
 17 18  1  0
 18 19  2  0
 18 23  1  0
 19 20  1  0
 20 21  2  0
 21 22  1  0
 22 23  2  0
M  END
