WPC2062_minimised.pdb
     RDKit          3D

 24 26  0  0  1  0  0  0  0  0999 V2000
    8.6430   -0.2030   19.7600 O   0  0  0  0  0  0  0  0  0  0  0  0
    7.9680   -0.3550   20.7580 C   0  0  0  0  0  0  0  0  0  0  0  0
    6.6090   -0.1960   20.7480 N   0  0  0  0  0  0  0  0  0  0  0  0
    5.8830    0.3800   19.6750 C   0  0  0  0  0  0  0  0  0  0  0  0
    4.9650    1.4020   19.9480 C   0  0  0  0  0  0  0  0  0  0  0  0
    4.3740    2.0550   18.8580 C   0  0  0  0  0  0  0  0  0  0  0  0
    4.7320    1.6910   17.5520 C   0  0  0  0  0  0  0  0  0  0  0  0
    5.5800    0.6740   17.2800 N   0  0  0  0  0  0  0  0  0  0  0  0
    6.1470    0.0440   18.3280 C   0  0  0  0  0  0  0  0  0  0  0  0
    8.4870   -0.6440   21.9900 N   0  0  0  0  0  0  0  0  0  0  0  0
    9.8580   -0.5230   22.2950 C   0  0  0  0  0  0  0  0  0  0  0  0
   10.8210   -1.2770   21.6140 C   0  0  0  0  0  0  0  0  0  0  0  0
   12.1880   -1.0040   21.7850 C   0  0  0  0  0  0  0  0  0  0  0  0
   12.5890    0.0180   22.6600 C   0  0  0  0  0  0  0  0  0  0  0  0
   11.6250    0.7310   23.3950 C   0  0  0  0  0  0  0  0  0  0  0  0
   12.0340    1.7840   24.4020 C   0  0  0  0  0  0  0  0  0  0  0  0
   11.9250    3.1570   23.9030 N   0  0  0  0  0  0  0  0  0  0  0  0
   13.1240    3.9510   23.6460 C   0  0  0  0  0  0  0  0  0  0  0  0
   12.5740    5.2710   23.0770 C   0  0  0  0  0  0  0  0  0  0  0  0
   11.1120    5.3410   23.5720 C   0  0  1  0  0  0  0  0  0  0  0  0
   10.2460    5.9880   22.6250 O   0  0  0  0  0  0  0  0  0  0  0  0
   10.7540    3.8740   23.8290 C   0  0  0  0  0  0  0  0  0  0  0  0
    9.6360    3.4320   24.0100 O   0  0  0  0  0  0  0  0  0  0  0  0
   10.2620    0.4510   23.2110 C   0  0  0  0  0  0  0  0  0  0  0  0
  1  2  2  0
  2  3  1  0
  2 10  1  0
  3  4  1  0
  4  5  2  0
  4  9  1  0
  5  6  1  0
  6  7  2  0
  7  8  1  0
  8  9  2  0
 10 11  1  0
 11 24  1  0
 11 12  2  0
 12 13  1  0
 13 14  2  0
 14 15  1  0
 15 16  1  0
 15 24  2  0
 16 17  1  0
 17 18  1  0
 17 22  1  0
 18 19  1  0
 19 20  1  0
 20 21  1  6
 20 22  1  0
 22 23  2  0
M  END
