WPC2618_minimised.pdb
     RDKit          3D

 21 22  0  0  0  0  0  0  0  0999 V2000
   14.2080    6.2950   21.3400 N   0  0  0  0  0  0  0  0  0  0  0  0
   13.7450    5.4700   22.0000 C   0  0  0  0  0  0  0  0  0  0  0  0
   13.1650    4.5070   22.8700 C   0  0  0  0  0  0  0  0  0  0  0  0
   11.8550    4.5140   23.1880 C   0  0  0  0  0  0  0  0  0  0  0  0
   11.1570    3.4080   24.3300 S   0  0  0  0  0  0  0  0  0  0  0  0
   11.1240    1.8330   23.5030 C   0  0  0  0  0  0  0  0  0  0  0  0
   12.2970    1.1310   23.1720 C   0  0  0  0  0  0  0  0  0  0  0  0
   12.2110   -0.0850   22.4700 C   0  0  0  0  0  0  0  0  0  0  0  0
   10.9540   -0.6110   22.1220 C   0  0  0  0  0  0  0  0  0  0  0  0
    9.7860    0.0790   22.4820 C   0  0  0  0  0  0  0  0  0  0  0  0
    8.5150   -0.3710   22.0760 N   0  0  0  0  0  0  0  0  0  0  0  0
    8.0130   -0.1340   20.8280 C   0  0  0  0  0  0  0  0  0  0  0  0
    8.6950    0.2220   19.8900 O   0  0  0  0  0  0  0  0  0  0  0  0
    6.6520   -0.2480   20.7410 N   0  0  0  0  0  0  0  0  0  0  0  0
    5.9060    0.3050   19.6730 C   0  0  0  0  0  0  0  0  0  0  0  0
    4.9510    1.2910   19.9500 C   0  0  0  0  0  0  0  0  0  0  0  0
    4.3720    1.9610   18.8640 C   0  0  0  0  0  0  0  0  0  0  0  0
    4.7670    1.6350   17.5580 C   0  0  0  0  0  0  0  0  0  0  0  0
    5.6500    0.6500   17.2810 N   0  0  0  0  0  0  0  0  0  0  0  0
    6.2180    0.0160   18.3270 C   0  0  0  0  0  0  0  0  0  0  0  0
    9.8750    1.2980   23.1670 C   0  0  0  0  0  0  0  0  0  0  0  0
  1  2  3  0
  2  3  1  0
  3  4  2  0
  4  5  1  0
  5  6  1  0
  6 21  2  0
  6  7  1  0
  7  8  2  0
  8  9  1  0
  9 10  2  0
 10 11  1  0
 10 21  1  0
 11 12  1  0
 12 13  2  0
 12 14  1  0
 14 15  1  0
 15 16  2  0
 15 20  1  0
 16 17  1  0
 17 18  2  0
 18 19  1  0
 19 20  2  0
M  END
