WPC2696_minimised.pdb
     RDKit          3D

 20 22  0  0  0  0  0  0  0  0999 V2000
   14.0810   -1.2420   20.7170 C   0  0  0  0  0  0  0  0  0  0  0  0
   12.6020   -1.0400   20.8930 C   0  0  0  0  0  0  0  0  0  0  0  0
   13.5070   -1.0490   22.0980 C   0  0  0  0  0  0  0  0  0  0  0  0
   13.8060    0.1810   22.7310 O   0  0  0  0  0  0  0  0  0  0  0  0
   12.8370    1.1400   22.9350 C   0  0  0  0  0  0  0  0  0  0  0  0
   11.4790    0.7960   23.0670 C   0  0  0  0  0  0  0  0  0  0  0  0
   10.4960    1.7920   23.0400 C   0  0  0  0  0  0  0  0  0  0  0  0
   13.2090    2.4910   22.8750 C   0  0  0  0  0  0  0  0  0  0  0  0
   12.2280    3.4960   22.9200 C   0  0  0  0  0  0  0  0  0  0  0  0
    9.1490    1.4250   22.8360 N   0  0  0  0  0  0  0  0  0  0  0  0
   10.8700    3.1430   22.9860 C   0  0  0  0  0  0  0  0  0  0  0  0
    8.6620    1.0980   21.5960 C   0  0  0  0  0  0  0  0  0  0  0  0
    9.3820    0.9820   20.6250 O   0  0  0  0  0  0  0  0  0  0  0  0
    7.3010    0.9370   21.5090 N   0  0  0  0  0  0  0  0  0  0  0  0
    6.5550    0.9550   20.2970 C   0  0  0  0  0  0  0  0  0  0  0  0
    6.9540    0.2640   19.1260 C   0  0  0  0  0  0  0  0  0  0  0  0
    5.4300    1.7880   20.2310 C   0  0  0  0  0  0  0  0  0  0  0  0
    6.3190    0.3820   17.9350 N   0  0  0  0  0  0  0  0  0  0  0  0
    4.7880    1.9300   18.9960 C   0  0  0  0  0  0  0  0  0  0  0  0
    5.2800    1.2440   17.8780 C   0  0  0  0  0  0  0  0  0  0  0  0
  1  2  1  0
  1  3  1  0
  2  3  1  0
  3  4  1  0
  4  5  1  0
  5  8  1  0
  5  6  2  0
  6  7  1  0
  7 10  1  0
  7 11  2  0
  8  9  2  0
  9 11  1  0
 10 12  1  0
 12 13  2  0
 12 14  1  0
 14 15  1  0
 15 16  2  0
 15 17  1  0
 16 18  1  0
 17 19  2  0
 18 20  2  0
 19 20  1  0
M  END
