WPC2861_minimised.pdb
     RDKit          3D

 19 20  0  0  0  0  0  0  0  0999 V2000
   14.0810   -1.3320   20.4990 O   0  0  0  0  0  0  0  0  0  0  0  0
   13.9100   -0.9940   22.1410 S   0  0  0  0  0  0  0  0  0  0  0  0
   13.3780   -2.5200   22.5770 O   0  0  0  0  0  0  0  0  0  0  0  0
   12.5190    0.1070   22.4020 C   0  0  0  0  0  0  0  0  0  0  0  0
   11.1960   -0.3200   22.2020 C   0  0  0  0  0  0  0  0  0  0  0  0
   10.1310    0.5530   22.4880 C   0  0  0  0  0  0  0  0  0  0  0  0
   12.7760    1.3970   22.8890 C   0  0  0  0  0  0  0  0  0  0  0  0
   11.7160    2.2790   23.1480 C   0  0  0  0  0  0  0  0  0  0  0  0
    8.7890    0.1690   22.2670 N   0  0  0  0  0  0  0  0  0  0  0  0
   10.3930    1.8530   22.9510 C   0  0  0  0  0  0  0  0  0  0  0  0
    8.1690    0.2390   21.0510 C   0  0  0  0  0  0  0  0  0  0  0  0
    8.7530    0.4570   20.0130 O   0  0  0  0  0  0  0  0  0  0  0  0
    6.8040    0.1170   21.0700 N   0  0  0  0  0  0  0  0  0  0  0  0
    6.0030    0.4960   19.9620 C   0  0  0  0  0  0  0  0  0  0  0  0
    6.2690    0.0190   18.6570 C   0  0  0  0  0  0  0  0  0  0  0  0
    5.0490    1.5060   20.1300 C   0  0  0  0  0  0  0  0  0  0  0  0
    5.6600    0.4970   17.5490 N   0  0  0  0  0  0  0  0  0  0  0  0
    4.4330    2.0200   18.9810 C   0  0  0  0  0  0  0  0  0  0  0  0
    4.7900    1.5170   17.7200 C   0  0  0  0  0  0  0  0  0  0  0  0
  1  2  1  0
  2  4  1  0
  2  3  1  0
  4  5  2  0
  4  7  1  0
  5  6  1  0
  6 10  2  0
  6  9  1  0
  7  8  2  0
  8 10  1  0
  9 11  1  0
 11 12  2  0
 11 13  1  0
 13 14  1  0
 14 15  2  0
 14 16  1  0
 15 17  1  0
 16 18  2  0
 17 19  2  0
 18 19  1  0
M  END
