WPC2300_minimised.pdb
     RDKit          3D

 23 24  0  0  1  0  0  0  0  0999 V2000
   12.7100    4.9540   23.0950 C   0  0  0  0  0  0  0  0  0  0  0  0
   11.2790    4.9210   23.6760 C   0  0  2  0  0  0  0  0  0  0  0  0
   11.0220    3.5820   24.4170 C   0  0  0  0  0  0  0  0  0  0  0  0
   11.0330    2.3040   23.5840 C   0  0  0  0  0  0  0  0  0  0  0  0
   12.2380    1.6440   23.2700 C   0  0  0  0  0  0  0  0  0  0  0  0
   12.2230    0.4350   22.5530 C   0  0  0  0  0  0  0  0  0  0  0  0
   11.0010   -0.1310   22.1540 C   0  0  0  0  0  0  0  0  0  0  0  0
    9.8000    0.5120   22.4850 C   0  0  0  0  0  0  0  0  0  0  0  0
    8.5550   -0.0020   22.0750 N   0  0  0  0  0  0  0  0  0  0  0  0
    8.0900    0.0800   20.7960 C   0  0  0  0  0  0  0  0  0  0  0  0
    8.7880    0.2980   19.8270 O   0  0  0  0  0  0  0  0  0  0  0  0
    6.7290   -0.0110   20.7100 N   0  0  0  0  0  0  0  0  0  0  0  0
    5.9860    0.4960   19.6190 C   0  0  0  0  0  0  0  0  0  0  0  0
    5.0270    1.4860   19.8630 C   0  0  0  0  0  0  0  0  0  0  0  0
    4.4350    2.1070   18.7570 C   0  0  0  0  0  0  0  0  0  0  0  0
    4.8370    1.7450   17.4640 C   0  0  0  0  0  0  0  0  0  0  0  0
    5.7310    0.7610   17.2180 N   0  0  0  0  0  0  0  0  0  0  0  0
    6.2970    0.1600   18.2850 C   0  0  0  0  0  0  0  0  0  0  0  0
    9.8180    1.7190   23.1950 C   0  0  0  0  0  0  0  0  0  0  0  0
   10.3190    5.2030   22.5960 N   0  0  0  0  0  0  0  0  0  0  0  0
    8.8710    5.1750   22.8980 C   0  0  0  0  0  0  0  0  0  0  0  0
    8.0560    4.8750   21.6210 C   0  0  0  0  0  0  0  0  0  0  0  0
    6.6830    4.5560   21.8820 O   0  0  0  0  0  0  0  0  0  0  0  0
  2  1  1  6
  2 20  1  0
  2  3  1  0
  3  4  1  0
  4 19  2  0
  4  5  1  0
  5  6  2  0
  6  7  1  0
  7  8  2  0
  8  9  1  0
  8 19  1  0
  9 10  1  0
 10 11  2  0
 10 12  1  0
 12 13  1  0
 13 14  2  0
 13 18  1  0
 14 15  1  0
 15 16  2  0
 16 17  1  0
 17 18  2  0
 20 21  1  0
 21 22  1  0
 22 23  1  0
M  END
