WPC2720_minimised.pdb
     RDKit          3D

 20 21  0  0  1  0  0  0  0  0999 V2000
   11.5210   -1.9530   23.3500 C   0  0  0  0  0  0  0  0  0  0  0  0
   11.4150   -0.5080   23.8960 C   0  0  1  0  0  0  0  0  0  0  0  0
   12.0570    0.5180   22.9330 C   0  0  0  0  0  0  0  0  0  0  0  0
   13.5230    0.3840   22.8750 N   0  0  0  0  0  0  0  0  0  0  0  0
    9.9720   -0.1510   24.2170 C   0  0  0  0  0  0  0  0  0  0  0  0
    9.0040   -0.1280   23.2000 C   0  0  0  0  0  0  0  0  0  0  0  0
    7.6750    0.2120   23.4920 C   0  0  0  0  0  0  0  0  0  0  0  0
    9.5940    0.1580   25.5360 C   0  0  0  0  0  0  0  0  0  0  0  0
    8.2660    0.4980   25.8330 C   0  0  0  0  0  0  0  0  0  0  0  0
    6.6750    0.2410   22.4980 N   0  0  0  0  0  0  0  0  0  0  0  0
    7.3070    0.5240   24.8100 C   0  0  0  0  0  0  0  0  0  0  0  0
    6.7930    0.4530   21.1500 C   0  0  0  0  0  0  0  0  0  0  0  0
    7.8300    0.5690   20.5200 O   0  0  0  0  0  0  0  0  0  0  0  0
    5.5500    0.5340   20.5890 N   0  0  0  0  0  0  0  0  0  0  0  0
    5.2440    1.0310   19.3060 C   0  0  0  0  0  0  0  0  0  0  0  0
    5.9780    0.6760   18.1540 C   0  0  0  0  0  0  0  0  0  0  0  0
    4.2280    1.9860   19.2040 C   0  0  0  0  0  0  0  0  0  0  0  0
    5.7660    1.2360   16.9440 N   0  0  0  0  0  0  0  0  0  0  0  0
    4.0150    2.5740   17.9550 C   0  0  0  0  0  0  0  0  0  0  0  0
    4.8280    2.2090   16.8760 C   0  0  0  0  0  0  0  0  0  0  0  0
  2  1  1  6
  2  3  1  0
  2  5  1  0
  3  4  1  0
  5  8  2  0
  5  6  1  0
  6  7  2  0
  7 10  1  0
  7 11  1  0
  8  9  1  0
  9 11  2  0
 10 12  1  0
 12 13  2  0
 12 14  1  0
 14 15  1  0
 15 16  2  0
 15 17  1  0
 16 18  1  0
 17 19  2  0
 18 20  2  0
 19 20  1  0
M  END
