WPC2600_minimised.pdb
     RDKit          3D

 24 25  0  0  0  0  0  0  0  0999 V2000
    9.2100    6.1590   22.7580 C   0  0  0  0  0  0  0  0  0  0  0  0
    9.4720    4.8300   23.4780 C   0  0  0  0  0  0  0  0  0  0  0  0
    8.5820    3.7080   22.8840 C   0  0  0  0  0  0  0  0  0  0  0  0
   10.9700    4.4750   23.4470 C   0  0  0  0  0  0  0  0  0  0  0  0
   11.2440    3.2630   24.2150 N   0  0  0  0  0  0  0  0  0  0  0  0
   12.3500    2.4990   23.9630 C   0  0  0  0  0  0  0  0  0  0  0  0
   13.3250    2.9520   23.4020 O   0  0  0  0  0  0  0  0  0  0  0  0
   12.2590    1.0580   24.4270 C   0  0  0  0  0  0  0  0  0  0  0  0
   11.6380    0.1830   23.3690 C   0  0  0  0  0  0  0  0  0  0  0  0
   12.4520   -0.5340   22.4780 C   0  0  0  0  0  0  0  0  0  0  0  0
   11.8660   -1.3840   21.5330 C   0  0  0  0  0  0  0  0  0  0  0  0
   10.4690   -1.4720   21.4500 C   0  0  0  0  0  0  0  0  0  0  0  0
    9.6580   -0.6760   22.2680 C   0  0  0  0  0  0  0  0  0  0  0  0
    8.2850   -0.5520   21.9790 N   0  0  0  0  0  0  0  0  0  0  0  0
    7.8240   -0.1130   20.7680 C   0  0  0  0  0  0  0  0  0  0  0  0
    8.5410    0.1150   19.8130 O   0  0  0  0  0  0  0  0  0  0  0  0
    6.4720    0.0760   20.7160 N   0  0  0  0  0  0  0  0  0  0  0  0
    5.7870    0.6440   19.6140 C   0  0  0  0  0  0  0  0  0  0  0  0
    4.8380    1.6480   19.8390 C   0  0  0  0  0  0  0  0  0  0  0  0
    4.2870    2.2830   18.7190 C   0  0  0  0  0  0  0  0  0  0  0  0
    4.7140    1.9210   17.4330 C   0  0  0  0  0  0  0  0  0  0  0  0
    5.5860    0.9130   17.2040 N   0  0  0  0  0  0  0  0  0  0  0  0
    6.1150    0.3020   18.2820 C   0  0  0  0  0  0  0  0  0  0  0  0
   10.2400    0.1190   23.2580 C   0  0  0  0  0  0  0  0  0  0  0  0
  1  2  1  0
  2  3  1  0
  2  4  1  0
  4  5  1  0
  5  6  1  0
  6  7  2  0
  6  8  1  0
  8  9  1  0
  9 24  2  0
  9 10  1  0
 10 11  2  0
 11 12  1  0
 12 13  2  0
 13 14  1  0
 13 24  1  0
 14 15  1  0
 15 16  2  0
 15 17  1  0
 17 18  1  0
 18 19  2  0
 18 23  1  0
 19 20  1  0
 20 21  2  0
 21 22  1  0
 22 23  2  0
M  END
