WPC2719_minimised.pdb
     RDKit          3D

 21 23  0  0  1  0  0  0  0  0999 V2000
   14.7960   -0.3410   20.2120 N   0  0  0  0  0  0  0  0  0  0  0  0
   14.1610   -1.4230   20.9610 C   0  0  0  0  0  0  0  0  0  0  0  0
   12.7540   -1.1000   21.4160 C   0  0  1  0  0  0  0  0  0  0  0  0
   12.1870   -1.8330   22.6050 C   0  0  0  0  0  0  0  0  0  0  0  0
   12.5800   -0.3720   22.7250 C   0  0  2  0  0  0  0  0  0  0  0  0
   11.5950    0.7480   22.8730 C   0  0  0  0  0  0  0  0  0  0  0  0
   10.2320    0.5480   22.6100 C   0  0  0  0  0  0  0  0  0  0  0  0
    9.3220    1.6020   22.7280 C   0  0  0  0  0  0  0  0  0  0  0  0
   12.0350    2.0270   23.2560 C   0  0  0  0  0  0  0  0  0  0  0  0
   11.1240    3.0900   23.3750 C   0  0  0  0  0  0  0  0  0  0  0  0
    7.9840    1.3850   22.3530 N   0  0  0  0  0  0  0  0  0  0  0  0
    9.7610    2.8760   23.1150 C   0  0  0  0  0  0  0  0  0  0  0  0
    7.6010    1.0350   21.0900 C   0  0  0  0  0  0  0  0  0  0  0  0
    8.3800    0.8120   20.1830 O   0  0  0  0  0  0  0  0  0  0  0  0
    6.2460    1.0010   20.9270 N   0  0  0  0  0  0  0  0  0  0  0  0
    5.5780    1.2000   19.6980 C   0  0  0  0  0  0  0  0  0  0  0  0
    6.0110    0.6280   18.4780 C   0  0  0  0  0  0  0  0  0  0  0  0
    4.5360    2.1320   19.6810 C   0  0  0  0  0  0  0  0  0  0  0  0
    5.4960    0.9700   17.2770 N   0  0  0  0  0  0  0  0  0  0  0  0
    4.0130    2.4970   18.4400 C   0  0  0  0  0  0  0  0  0  0  0  0
    4.5490    1.9370   17.2740 C   0  0  0  0  0  0  0  0  0  0  0  0
  1  2  1  0
  3  2  1  1
  3  4  1  0
  3  5  1  0
  4  5  1  0
  5  6  1  6
  6  9  1  0
  6  7  2  0
  7  8  1  0
  8 11  1  0
  8 12  2  0
  9 10  2  0
 10 12  1  0
 11 13  1  0
 13 14  2  0
 13 15  1  0
 15 16  1  0
 16 17  2  0
 16 18  1  0
 17 19  1  0
 18 20  2  0
 19 21  2  0
 20 21  1  0
M  END
