WPC2070_minimised.pdb
     RDKit          3D

 23 25  0  0  0  0  0  0  0  0999 V2000
    8.5330   -0.1230   19.6850 O   0  0  0  0  0  0  0  0  0  0  0  0
    7.7940   -0.4370   20.5960 C   0  0  0  0  0  0  0  0  0  0  0  0
    6.4340   -0.3370   20.5070 N   0  0  0  0  0  0  0  0  0  0  0  0
    5.7610    0.3480   19.4670 C   0  0  0  0  0  0  0  0  0  0  0  0
    4.8420    1.3560   19.7880 C   0  0  0  0  0  0  0  0  0  0  0  0
    4.3080    2.1100   18.7350 C   0  0  0  0  0  0  0  0  0  0  0  0
    4.7190    1.8520   17.4180 C   0  0  0  0  0  0  0  0  0  0  0  0
    5.5780    0.8580   17.1000 N   0  0  0  0  0  0  0  0  0  0  0  0
    6.0900    0.1320   18.1130 C   0  0  0  0  0  0  0  0  0  0  0  0
    8.2220   -0.8420   21.8290 N   0  0  0  0  0  0  0  0  0  0  0  0
    9.5070   -0.5300   22.3130 C   0  0  0  0  0  0  0  0  0  0  0  0
   10.6600   -1.1030   21.7580 C   0  0  0  0  0  0  0  0  0  0  0  0
   11.9300   -0.6210   22.1180 C   0  0  0  0  0  0  0  0  0  0  0  0
   12.0400    0.4400   23.0340 C   0  0  0  0  0  0  0  0  0  0  0  0
   10.8810    0.9910   23.6050 C   0  0  0  0  0  0  0  0  0  0  0  0
   10.9920    2.3200   24.7760 S   0  0  0  0  0  0  0  0  0  0  0  0
   10.2000    3.6880   23.9620 C   0  0  0  0  0  0  0  0  0  0  0  0
   10.7400    4.8880   24.2100 N   0  0  0  0  0  0  0  0  0  0  0  0
   10.1740    5.9340   23.6090 C   0  0  0  0  0  0  0  0  0  0  0  0
    9.0550    5.7980   22.7980 C   0  0  0  0  0  0  0  0  0  0  0  0
    8.5460    4.5160   22.6180 C   0  0  0  0  0  0  0  0  0  0  0  0
    9.0970    3.4620   23.2300 N   0  0  0  0  0  0  0  0  0  0  0  0
    9.6220    0.4890   23.2610 C   0  0  0  0  0  0  0  0  0  0  0  0
  1  2  2  0
  2  3  1  0
  2 10  1  0
  3  4  1  0
  4  5  2  0
  4  9  1  0
  5  6  1  0
  6  7  2  0
  7  8  1  0
  8  9  2  0
 10 11  1  0
 11 23  1  0
 11 12  2  0
 12 13  1  0
 13 14  2  0
 14 15  1  0
 15 16  1  0
 15 23  2  0
 16 17  1  0
 17 18  2  0
 17 22  1  0
 18 19  1  0
 19 20  2  0
 20 21  1  0
 21 22  2  0
M  END
