WPC2687_minimised.pdb
     RDKit          3D

 21 23  0  0  1  0  0  0  0  0999 V2000
   13.9760   -2.5570   21.0990 N   0  0  0  0  0  0  0  0  0  0  0  0
   13.5270   -1.2180   21.3670 C   0  0  1  0  0  0  0  0  0  0  0  0
   12.0460   -0.9980   21.2830 C   0  0  0  0  0  0  0  0  0  0  0  0
   12.7340   -0.9630   22.6250 C   0  0  2  0  0  0  0  0  0  0  0  0
   12.9420    0.2930   23.2400 O   0  0  0  0  0  0  0  0  0  0  0  0
   11.9250    1.2140   23.3330 C   0  0  0  0  0  0  0  0  0  0  0  0
   10.5820    0.8100   23.3170 C   0  0  0  0  0  0  0  0  0  0  0  0
    9.5710    1.7610   23.1690 C   0  0  0  0  0  0  0  0  0  0  0  0
   12.2430    2.5790   23.2930 C   0  0  0  0  0  0  0  0  0  0  0  0
   11.2220    3.5410   23.2220 C   0  0  0  0  0  0  0  0  0  0  0  0
    8.2870    1.3240   22.8060 N   0  0  0  0  0  0  0  0  0  0  0  0
    9.8820    3.1280   23.1450 C   0  0  0  0  0  0  0  0  0  0  0  0
    7.9680    0.9910   21.5160 C   0  0  0  0  0  0  0  0  0  0  0  0
    8.7820    0.9230   20.6140 O   0  0  0  0  0  0  0  0  0  0  0  0
    6.6310    0.7820   21.3150 N   0  0  0  0  0  0  0  0  0  0  0  0
    5.9800    0.9320   20.0670 C   0  0  0  0  0  0  0  0  0  0  0  0
    6.4510    0.3380   18.8710 C   0  0  0  0  0  0  0  0  0  0  0  0
    4.9090    1.8300   20.0020 C   0  0  0  0  0  0  0  0  0  0  0  0
    5.9310    0.6110   17.6520 N   0  0  0  0  0  0  0  0  0  0  0  0
    4.3880    2.1330   18.7410 C   0  0  0  0  0  0  0  0  0  0  0  0
    4.9480    1.5390   17.6030 C   0  0  0  0  0  0  0  0  0  0  0  0
  2  1  1  1
  2  3  1  0
  2  4  1  0
  3  4  1  0
  4  5  1  6
  5  6  1  0
  6  9  1  0
  6  7  2  0
  7  8  1  0
  8 11  1  0
  8 12  2  0
  9 10  2  0
 10 12  1  0
 11 13  1  0
 13 14  2  0
 13 15  1  0
 15 16  1  0
 16 17  2  0
 16 18  1  0
 17 19  1  0
 18 20  2  0
 19 21  2  0
 20 21  1  0
M  END
