WPC2759_minimised.pdb
     RDKit          3D

 20 21  0  0  0  0  0  0  0  0999 V2000
   13.2660   -1.2500   21.6100 C   0  0  0  0  0  0  0  0  0  0  0  0
   12.8270    0.0530   22.3030 C   0  0  0  0  0  0  0  0  0  0  0  0
   14.0060    0.7150   23.0420 C   0  0  0  0  0  0  0  0  0  0  0  0
   12.4880    0.9440   21.2730 O   0  0  0  0  0  0  0  0  0  0  0  0
   11.5550   -0.1220   23.1380 C   0  0  0  0  0  0  0  0  0  0  0  0
   10.3430   -0.3120   22.4520 C   0  0  0  0  0  0  0  0  0  0  0  0
    9.1110   -0.2660   23.1200 C   0  0  0  0  0  0  0  0  0  0  0  0
   11.5210    0.0100   24.5400 C   0  0  0  0  0  0  0  0  0  0  0  0
   10.2970   -0.0190   25.2290 C   0  0  0  0  0  0  0  0  0  0  0  0
    7.8850   -0.2720   22.4110 N   0  0  0  0  0  0  0  0  0  0  0  0
    9.0920   -0.1390   24.5170 C   0  0  0  0  0  0  0  0  0  0  0  0
    7.6520    0.1560   21.1260 C   0  0  0  0  0  0  0  0  0  0  0  0
    8.4960    0.4880   20.3140 O   0  0  0  0  0  0  0  0  0  0  0  0
    6.3170    0.1910   20.8440 N   0  0  0  0  0  0  0  0  0  0  0  0
    5.7390    0.7180   19.6670 C   0  0  0  0  0  0  0  0  0  0  0  0
    6.2020    0.3550   18.3830 C   0  0  0  0  0  0  0  0  0  0  0  0
    4.7360    1.6870   19.7820 C   0  0  0  0  0  0  0  0  0  0  0  0
    5.7220    0.8940   17.2430 N   0  0  0  0  0  0  0  0  0  0  0  0
    4.2570    2.2660   18.6010 C   0  0  0  0  0  0  0  0  0  0  0  0
    4.7900    1.8670   17.3680 C   0  0  0  0  0  0  0  0  0  0  0  0
  1  2  1  0
  2  5  1  0
  2  3  1  0
  2  4  1  0
  5  6  2  0
  5  8  1  0
  6  7  1  0
  7 11  2  0
  7 10  1  0
  8  9  2  0
  9 11  1  0
 10 12  1  0
 12 13  2  0
 12 14  1  0
 14 15  1  0
 15 16  2  0
 15 17  1  0
 16 18  1  0
 17 19  2  0
 18 20  2  0
 19 20  1  0
M  END
