WPC2283_minimised.pdb
     RDKit          3D

 24 26  0  0  0  0  0  0  0  0999 V2000
    8.7470   -0.4880   19.1550 O   0  0  0  0  0  0  0  0  0  0  0  0
    8.0960   -0.6550   20.1650 C   0  0  0  0  0  0  0  0  0  0  0  0
    6.7570   -0.3960   20.2380 N   0  0  0  0  0  0  0  0  0  0  0  0
    6.0130    0.3220   19.2740 C   0  0  0  0  0  0  0  0  0  0  0  0
    5.1180    1.3140   19.6920 C   0  0  0  0  0  0  0  0  0  0  0  0
    4.4910    2.0890   18.7080 C   0  0  0  0  0  0  0  0  0  0  0  0
    4.7960    1.8690   17.3570 C   0  0  0  0  0  0  0  0  0  0  0  0
    5.6270    0.8870   16.9480 N   0  0  0  0  0  0  0  0  0  0  0  0
    6.2190    0.1350   17.8950 C   0  0  0  0  0  0  0  0  0  0  0  0
    8.6120   -1.0600   21.3600 N   0  0  0  0  0  0  0  0  0  0  0  0
    9.9240   -0.7640   21.7690 C   0  0  0  0  0  0  0  0  0  0  0  0
   10.8650   -1.7620   22.0520 C   0  0  0  0  0  0  0  0  0  0  0  0
   12.1450   -1.4020   22.5080 C   0  0  0  0  0  0  0  0  0  0  0  0
   12.4430   -0.0510   22.7740 C   0  0  0  0  0  0  0  0  0  0  0  0
   11.4700    0.9350   22.5550 C   0  0  0  0  0  0  0  0  0  0  0  0
   11.7200    2.6130   23.1010 S   0  0  0  0  0  0  0  0  0  0  0  0
   10.2760    2.8920   24.2240 C   0  0  0  0  0  0  0  0  0  0  0  0
    8.9590    3.0950   23.4830 C   0  0  0  0  0  0  0  0  0  0  0  0
    8.7590    4.2410   22.7000 C   0  0  0  0  0  0  0  0  0  0  0  0
    7.5330    4.3860   22.0380 C   0  0  0  0  0  0  0  0  0  0  0  0
    6.5460    3.4030   22.1880 C   0  0  0  0  0  0  0  0  0  0  0  0
    6.7190    2.3040   22.9580 N   0  0  0  0  0  0  0  0  0  0  0  0
    7.9080    2.1590   23.5830 C   0  0  0  0  0  0  0  0  0  0  0  0
   10.2480    0.5790   21.9770 C   0  0  0  0  0  0  0  0  0  0  0  0
  1  2  2  0
  2  3  1  0
  2 10  1  0
  3  4  1  0
  4  5  2  0
  4  9  1  0
  5  6  1  0
  6  7  2  0
  7  8  1  0
  8  9  2  0
 10 11  1  0
 11 24  1  0
 11 12  2  0
 12 13  1  0
 13 14  2  0
 14 15  1  0
 15 16  1  0
 15 24  2  0
 16 17  1  0
 17 18  1  0
 18 19  2  0
 18 23  1  0
 19 20  1  0
 20 21  2  0
 21 22  1  0
 22 23  2  0
M  END
