WPC2621_minimised.pdb
     RDKit          3D

 24 25  0  0  0  0  0  0  0  0999 V2000
   12.6790    7.2420   25.6550 C   0  0  0  0  0  0  0  0  0  0  0  0
   12.0150    6.3450   24.6250 C   0  0  0  0  0  0  0  0  0  0  0  0
   10.8110    6.2720   24.4720 O   0  0  0  0  0  0  0  0  0  0  0  0
   12.9320    5.7990   23.7820 O   0  0  0  0  0  0  0  0  0  0  0  0
   12.4860    4.9620   22.6940 C   0  0  0  0  0  0  0  0  0  0  0  0
   12.4810    3.4850   23.1300 C   0  0  0  0  0  0  0  0  0  0  0  0
   11.4250    3.1140   24.1920 C   0  0  0  0  0  0  0  0  0  0  0  0
   11.5470    1.6390   24.6260 C   0  0  0  0  0  0  0  0  0  0  0  0
   11.1890    0.6520   23.5380 C   0  0  0  0  0  0  0  0  0  0  0  0
   12.1930   -0.0270   22.8240 C   0  0  0  0  0  0  0  0  0  0  0  0
   11.8440   -0.9930   21.8680 C   0  0  0  0  0  0  0  0  0  0  0  0
   10.4900   -1.2450   21.6020 C   0  0  0  0  0  0  0  0  0  0  0  0
    9.4930   -0.5180   22.2640 C   0  0  0  0  0  0  0  0  0  0  0  0
    8.1480   -0.6210   21.8690 N   0  0  0  0  0  0  0  0  0  0  0  0
    7.7160   -0.3040   20.6130 C   0  0  0  0  0  0  0  0  0  0  0  0
    8.4530   -0.1350   19.6610 O   0  0  0  0  0  0  0  0  0  0  0  0
    6.3620   -0.1350   20.5410 N   0  0  0  0  0  0  0  0  0  0  0  0
    5.6910    0.4820   19.4600 C   0  0  0  0  0  0  0  0  0  0  0  0
    4.7570    1.4900   19.7280 C   0  0  0  0  0  0  0  0  0  0  0  0
    4.2210    2.1860   18.6370 C   0  0  0  0  0  0  0  0  0  0  0  0
    4.6480    1.8750   17.3380 C   0  0  0  0  0  0  0  0  0  0  0  0
    5.5130    0.8710   17.0690 N   0  0  0  0  0  0  0  0  0  0  0  0
    6.0260    0.2000   18.1180 C   0  0  0  0  0  0  0  0  0  0  0  0
    9.8390    0.4100   23.2490 C   0  0  0  0  0  0  0  0  0  0  0  0
  1  2  1  0
  2  3  2  0
  2  4  1  0
  4  5  1  0
  5  6  1  0
  6  7  1  0
  7  8  1  0
  8  9  1  0
  9 24  2  0
  9 10  1  0
 10 11  2  0
 11 12  1  0
 12 13  2  0
 13 14  1  0
 13 24  1  0
 14 15  1  0
 15 16  2  0
 15 17  1  0
 17 18  1  0
 18 19  2  0
 18 23  1  0
 19 20  1  0
 20 21  2  0
 21 22  1  0
 22 23  2  0
M  END
