WPC2679_minimised.pdb
     RDKit          3D

 20 21  0  0  1  0  0  0  0  0999 V2000
   14.1650   -1.2450   20.5790 N   0  0  0  0  0  0  0  0  0  0  0  0
   12.9940   -0.5670   21.1460 C   0  0  0  0  0  0  0  0  0  0  0  0
   12.7690   -0.9610   22.6130 C   0  0  2  0  0  0  0  0  0  0  0  0
   12.6780   -2.3810   22.7220 O   0  0  0  0  0  0  0  0  0  0  0  0
   11.5100   -0.3250   23.1730 C   0  0  0  0  0  0  0  0  0  0  0  0
   10.2660   -0.5610   22.5600 C   0  0  0  0  0  0  0  0  0  0  0  0
    9.1120    0.0730   23.0380 C   0  0  0  0  0  0  0  0  0  0  0  0
   11.5800    0.5390   24.2780 C   0  0  0  0  0  0  0  0  0  0  0  0
   10.4150    1.1420   24.7800 C   0  0  0  0  0  0  0  0  0  0  0  0
    7.8850   -0.0670   22.3660 N   0  0  0  0  0  0  0  0  0  0  0  0
    9.1800    0.9080   24.1610 C   0  0  0  0  0  0  0  0  0  0  0  0
    7.6790    0.1790   21.0370 C   0  0  0  0  0  0  0  0  0  0  0  0
    8.5530    0.3760   20.2120 O   0  0  0  0  0  0  0  0  0  0  0  0
    6.3450    0.2210   20.7500 N   0  0  0  0  0  0  0  0  0  0  0  0
    5.7660    0.7320   19.5690 C   0  0  0  0  0  0  0  0  0  0  0  0
    6.2360    0.3850   18.2840 C   0  0  0  0  0  0  0  0  0  0  0  0
    4.7450    1.6810   19.6900 C   0  0  0  0  0  0  0  0  0  0  0  0
    5.7460    0.9270   17.1490 N   0  0  0  0  0  0  0  0  0  0  0  0
    4.2530    2.2580   18.5160 C   0  0  0  0  0  0  0  0  0  0  0  0
    4.7960    1.8820   17.2810 C   0  0  0  0  0  0  0  0  0  0  0  0
  1  2  1  0
  2  3  1  0
  3  4  1  6
  3  5  1  0
  5  8  2  0
  5  6  1  0
  6  7  2  0
  7 10  1  0
  7 11  1  0
  8  9  1  0
  9 11  2  0
 10 12  1  0
 12 13  2  0
 12 14  1  0
 14 15  1  0
 15 16  2  0
 15 17  1  0
 16 18  1  0
 17 19  2  0
 18 20  2  0
 19 20  1  0
M  END
