WPC2562_minimised.pdb
     RDKit          3D

 23 25  0  0  0  0  0  0  0  0999 V2000
    8.5520    5.9700   22.3520 N   0  0  0  0  0  0  0  0  0  0  0  0
    9.3260    5.1600   23.1000 C   0  0  0  0  0  0  0  0  0  0  0  0
   10.0770    5.6680   24.0500 N   0  0  0  0  0  0  0  0  0  0  0  0
   10.7800    4.6790   24.6930 N   0  0  0  0  0  0  0  0  0  0  0  0
   10.5270    3.4890   24.1730 C   0  0  0  0  0  0  0  0  0  0  0  0
   11.2820    2.1180   24.9780 S   0  0  0  0  0  0  0  0  0  0  0  0
   11.0090    0.8950   23.7210 C   0  0  0  0  0  0  0  0  0  0  0  0
   12.1020    0.3810   23.0050 C   0  0  0  0  0  0  0  0  0  0  0  0
   11.8980   -0.6110   22.0330 C   0  0  0  0  0  0  0  0  0  0  0  0
   10.5930   -1.0440   21.7500 C   0  0  0  0  0  0  0  0  0  0  0  0
    9.5020   -0.5040   22.4440 C   0  0  0  0  0  0  0  0  0  0  0  0
    8.1840   -0.7180   21.9970 N   0  0  0  0  0  0  0  0  0  0  0  0
    7.7560   -0.2890   20.7710 C   0  0  0  0  0  0  0  0  0  0  0  0
    8.4980    0.0480   19.8690 O   0  0  0  0  0  0  0  0  0  0  0  0
    6.3960   -0.2030   20.6610 N   0  0  0  0  0  0  0  0  0  0  0  0
    5.7390    0.4330   19.5810 C   0  0  0  0  0  0  0  0  0  0  0  0
    4.8180    1.4560   19.8380 C   0  0  0  0  0  0  0  0  0  0  0  0
    4.3090    2.1630   18.7410 C   0  0  0  0  0  0  0  0  0  0  0  0
    4.7390    1.8390   17.4450 C   0  0  0  0  0  0  0  0  0  0  0  0
    5.5970    0.8260   17.1870 N   0  0  0  0  0  0  0  0  0  0  0  0
    6.0910    0.1510   18.2430 C   0  0  0  0  0  0  0  0  0  0  0  0
    9.7160    0.4130   23.4760 C   0  0  0  0  0  0  0  0  0  0  0  0
    9.3280    3.4390   22.9120 S   0  0  0  0  0  0  0  0  0  0  0  0
  1  2  1  0
  2 23  1  0
  2  3  2  0
  3  4  1  0
  4  5  2  0
  5  6  1  0
  5 23  1  0
  6  7  1  0
  7 22  1  0
  7  8  2  0
  8  9  1  0
  9 10  2  0
 10 11  1  0
 11 12  1  0
 11 22  2  0
 12 13  1  0
 13 14  2  0
 13 15  1  0
 15 16  1  0
 16 17  2  0
 16 21  1  0
 17 18  1  0
 18 19  2  0
 19 20  1  0
 20 21  2  0
M  END
