WPC2029_minimised.pdb
     RDKit          3D

 24 26  0  0  0  0  0  0  0  0999 V2000
   12.1420    6.7560   24.7620 C   0  0  0  0  0  0  0  0  0  0  0  0
   12.2810    5.2570   24.5150 C   0  0  0  0  0  0  0  0  0  0  0  0
   10.9500    4.5420   24.8660 C   0  0  0  0  0  0  0  0  0  0  0  0
   10.8980    3.0690   24.4110 C   0  0  0  0  0  0  0  0  0  0  0  0
   12.2370    2.6070   24.0170 N   0  0  0  0  0  0  0  0  0  0  0  0
   12.5450    1.1780   24.1700 C   0  0  0  0  0  0  0  0  0  0  0  0
   11.8810    0.2640   23.1610 C   0  0  0  0  0  0  0  0  0  0  0  0
   12.6800   -0.4980   22.2920 C   0  0  0  0  0  0  0  0  0  0  0  0
   12.0860   -1.4190   21.4220 C   0  0  0  0  0  0  0  0  0  0  0  0
   10.6900   -1.5540   21.4010 C   0  0  0  0  0  0  0  0  0  0  0  0
    9.8860   -0.7420   22.2060 C   0  0  0  0  0  0  0  0  0  0  0  0
    8.4920   -0.7030   21.9910 N   0  0  0  0  0  0  0  0  0  0  0  0
    7.9420   -0.3530   20.7860 C   0  0  0  0  0  0  0  0  0  0  0  0
    8.5990   -0.1730   19.7790 O   0  0  0  0  0  0  0  0  0  0  0  0
    6.5830   -0.1860   20.8000 N   0  0  0  0  0  0  0  0  0  0  0  0
    5.8450    0.3790   19.7290 C   0  0  0  0  0  0  0  0  0  0  0  0
    4.9230    1.3990   19.9980 C   0  0  0  0  0  0  0  0  0  0  0  0
    4.3290    2.0460   18.9060 C   0  0  0  0  0  0  0  0  0  0  0  0
    4.6850    1.6750   17.6010 C   0  0  0  0  0  0  0  0  0  0  0  0
    5.5290    0.6550   17.3310 N   0  0  0  0  0  0  0  0  0  0  0  0
    6.1020    0.0340   18.3820 C   0  0  0  0  0  0  0  0  0  0  0  0
   10.4800    0.1310   23.1200 C   0  0  0  0  0  0  0  0  0  0  0  0
   12.8730    3.3580   22.9150 C   0  0  0  0  0  0  0  0  0  0  0  0
   12.6890    4.8900   23.0700 C   0  0  0  0  0  0  0  0  0  0  0  0
  1  2  1  0
  2  3  1  0
  2 24  1  0
  3  4  1  0
  4  5  1  0
  5 23  1  0
  5  6  1  0
  6  7  1  0
  7 22  1  0
  7  8  2  0
  8  9  1  0
  9 10  2  0
 10 11  1  0
 11 12  1  0
 11 22  2  0
 12 13  1  0
 13 14  2  0
 13 15  1  0
 15 16  1  0
 16 17  2  0
 16 21  1  0
 17 18  1  0
 18 19  2  0
 19 20  1  0
 20 21  2  0
 23 24  1  0
M  END
