WPC2116_minimised.pdb
     RDKit          3D

 24 25  0  0  1  0  0  0  0  0999 V2000
    8.5410    5.7890   21.6300 N   0  0  0  0  0  0  0  0  0  0  0  0
    8.3670    4.7850   22.3330 C   0  0  0  0  0  0  0  0  0  0  0  0
    7.3020    4.0170   22.1290 N   0  0  0  0  0  0  0  0  0  0  0  0
    9.3780    3.9680   22.4510 N   0  0  0  0  0  0  0  0  0  0  0  0
   10.4800    4.3940   23.5660 S   0  0  0  0  0  0  0  0  0  0  0  0
   11.6600    4.7430   22.8200 O   0  0  0  0  0  0  0  0  0  0  0  0
    9.9010    5.3420   24.4900 O   0  0  0  0  0  0  0  0  0  0  0  0
   10.8220    2.8970   24.4760 C   0  0  0  0  0  0  0  0  0  0  0  0
   10.9200    1.6320   23.6460 C   0  0  0  0  0  0  0  0  0  0  0  0
   12.1570    1.1470   23.1860 C   0  0  0  0  0  0  0  0  0  0  0  0
   12.2030    0.0070   22.3630 C   0  0  0  0  0  0  0  0  0  0  0  0
   11.0110   -0.6360   21.9840 C   0  0  0  0  0  0  0  0  0  0  0  0
    9.7810   -0.1490   22.4510 C   0  0  0  0  0  0  0  0  0  0  0  0
    8.5550   -0.6440   21.9680 N   0  0  0  0  0  0  0  0  0  0  0  0
    8.0850   -0.3170   20.7280 C   0  0  0  0  0  0  0  0  0  0  0  0
    8.7900    0.0580   19.8130 O   0  0  0  0  0  0  0  0  0  0  0  0
    6.7210   -0.3500   20.6360 N   0  0  0  0  0  0  0  0  0  0  0  0
    5.9970    0.2870   19.6000 C   0  0  0  0  0  0  0  0  0  0  0  0
    5.0700    1.2860   19.9250 C   0  0  0  0  0  0  0  0  0  0  0  0
    4.4960    2.0110   18.8720 C   0  0  0  0  0  0  0  0  0  0  0  0
    4.8800    1.7360   17.5510 C   0  0  0  0  0  0  0  0  0  0  0  0
    5.7440    0.7490   17.2280 N   0  0  0  0  0  0  0  0  0  0  0  0
    6.2950    0.0500   18.2410 C   0  0  0  0  0  0  0  0  0  0  0  0
    9.7400    0.9620   23.2990 C   0  0  0  0  0  0  0  0  0  0  0  0
  2  1  1  0
  2  3  1  0
  2  4  1  0
  4  5  1  0
  5  6  2  0
  5  7  2  0
  5  8  1  0
  8  9  1  0
  9 24  2  0
  9 10  1  0
 10 11  2  0
 11 12  1  0
 12 13  2  0
 13 14  1  0
 13 24  1  0
 14 15  1  0
 15 16  2  0
 15 17  1  0
 17 18  1  0
 18 19  2  0
 18 23  1  0
 19 20  1  0
 20 21  2  0
 21 22  1  0
 22 23  2  0
M  END
