WPC2035_minimised.pdb
     RDKit          3D

 22 23  0  0  0  0  0  0  0  0999 V2000
   10.9540    5.4000   25.2720 N   0  0  0  0  0  0  0  0  0  0  0  0
   11.9710    5.8790   24.7100 C   0  0  0  0  0  0  0  0  0  0  0  0
   12.5880    6.9210   25.3070 N   0  0  0  0  0  0  0  0  0  0  0  0
   12.8470    5.3720   23.3190 S   0  0  0  0  0  0  0  0  0  0  0  0
   11.8710    3.9170   22.7460 C   0  0  0  0  0  0  0  0  0  0  0  0
   12.2600    2.6510   23.5330 C   0  0  0  0  0  0  0  0  0  0  0  0
   11.7370    1.3590   22.9280 C   0  0  0  0  0  0  0  0  0  0  0  0
   12.6320    0.3530   22.5180 C   0  0  0  0  0  0  0  0  0  0  0  0
   12.1500   -0.8340   21.9430 C   0  0  0  0  0  0  0  0  0  0  0  0
   10.7680   -1.0200   21.7820 C   0  0  0  0  0  0  0  0  0  0  0  0
    9.8740   -0.0240   22.1990 C   0  0  0  0  0  0  0  0  0  0  0  0
    8.4940   -0.1590   21.9540 N   0  0  0  0  0  0  0  0  0  0  0  0
    7.9410   -0.0540   20.7100 C   0  0  0  0  0  0  0  0  0  0  0  0
    8.5980   -0.0100   19.6900 O   0  0  0  0  0  0  0  0  0  0  0  0
    6.5780    0.0620   20.7120 N   0  0  0  0  0  0  0  0  0  0  0  0
    5.8220    0.5530   19.6190 C   0  0  0  0  0  0  0  0  0  0  0  0
    4.8770    1.5580   19.8560 C   0  0  0  0  0  0  0  0  0  0  0  0
    4.2670    2.1530   18.7450 C   0  0  0  0  0  0  0  0  0  0  0  0
    4.6350    1.7500   17.4540 C   0  0  0  0  0  0  0  0  0  0  0  0
    5.5010    0.7390   17.2160 N   0  0  0  0  0  0  0  0  0  0  0  0
    6.0860    0.1640   18.2870 C   0  0  0  0  0  0  0  0  0  0  0  0
   10.3550    1.1600   22.7750 C   0  0  0  0  0  0  0  0  0  0  0  0
  1  2  2  0
  2  3  1  0
  2  4  1  0
  4  5  1  0
  5  6  1  0
  6  7  1  0
  7 22  2  0
  7  8  1  0
  8  9  2  0
  9 10  1  0
 10 11  2  0
 11 12  1  0
 11 22  1  0
 12 13  1  0
 13 14  2  0
 13 15  1  0
 15 16  1  0
 16 17  2  0
 16 21  1  0
 17 18  1  0
 18 19  2  0
 19 20  1  0
 20 21  2  0
M  END
