WPC2443_minimised.pdb
     RDKit          3D

 22 23  0  0  1  0  0  0  0  0999 V2000
   12.4760    4.5610   23.0820 C   0  0  0  0  0  0  0  0  0  0  0  0
   11.1500    4.4130   23.8540 C   0  0  2  0  0  0  0  0  0  0  0  0
   10.9990    3.0270   24.5180 C   0  0  0  0  0  0  0  0  0  0  0  0
   10.9480    1.8290   23.5830 C   0  0  0  0  0  0  0  0  0  0  0  0
   12.1260    1.1980   23.1400 C   0  0  0  0  0  0  0  0  0  0  0  0
   12.0530    0.0660   22.3090 C   0  0  0  0  0  0  0  0  0  0  0  0
   10.8000   -0.4460   21.9310 C   0  0  0  0  0  0  0  0  0  0  0  0
    9.6270    0.1740   22.3880 C   0  0  0  0  0  0  0  0  0  0  0  0
    8.3560   -0.2680   21.9740 N   0  0  0  0  0  0  0  0  0  0  0  0
    7.8720   -0.0730   20.7140 C   0  0  0  0  0  0  0  0  0  0  0  0
    8.5650    0.2200   19.7610 O   0  0  0  0  0  0  0  0  0  0  0  0
    6.5090   -0.1420   20.6330 N   0  0  0  0  0  0  0  0  0  0  0  0
    5.7760    0.4140   19.5590 C   0  0  0  0  0  0  0  0  0  0  0  0
    4.8270    1.4080   19.8270 C   0  0  0  0  0  0  0  0  0  0  0  0
    4.2630    2.0800   18.7350 C   0  0  0  0  0  0  0  0  0  0  0  0
    4.6720    1.7530   17.4340 C   0  0  0  0  0  0  0  0  0  0  0  0
    5.5530    0.7630   17.1670 N   0  0  0  0  0  0  0  0  0  0  0  0
    6.0980    0.1190   18.2170 C   0  0  0  0  0  0  0  0  0  0  0  0
    9.7030    1.3050   23.2090 C   0  0  0  0  0  0  0  0  0  0  0  0
   10.0270    4.6890   22.9600 N   0  0  0  0  0  0  0  0  0  0  0  0
    9.4590    5.9290   22.8160 C   0  0  0  0  0  0  0  0  0  0  0  0
    9.7550    6.8540   23.5480 O   0  0  0  0  0  0  0  0  0  0  0  0
  2  1  1  6
  2 20  1  0
  2  3  1  0
  3  4  1  0
  4 19  2  0
  4  5  1  0
  5  6  2  0
  6  7  1  0
  7  8  2  0
  8  9  1  0
  8 19  1  0
  9 10  1  0
 10 11  2  0
 10 12  1  0
 12 13  1  0
 13 14  2  0
 13 18  1  0
 14 15  1  0
 15 16  2  0
 16 17  1  0
 17 18  2  0
 20 21  1  0
 21 22  2  0
M  END
