WPC2800_minimised.pdb
     RDKit          3D

 19 20  0  0  0  0  0  0  0  0999 V2000
   14.4270    0.5420   22.4850 O   0  0  0  0  0  0  0  0  0  0  0  0
   13.1170    0.6860   23.0150 C   0  0  0  0  0  0  0  0  0  0  0  0
   12.2930   -0.5850   22.7430 C   0  0  0  0  0  0  0  0  0  0  0  0
   10.9070   -0.4680   23.3530 C   0  0  0  0  0  0  0  0  0  0  0  0
    9.7840   -0.4350   22.5150 C   0  0  0  0  0  0  0  0  0  0  0  0
    8.5030   -0.2260   23.0520 C   0  0  0  0  0  0  0  0  0  0  0  0
   10.7360   -0.3300   24.7420 C   0  0  0  0  0  0  0  0  0  0  0  0
    9.4580   -0.1440   25.2880 C   0  0  0  0  0  0  0  0  0  0  0  0
    7.3590   -0.1230   22.2340 N   0  0  0  0  0  0  0  0  0  0  0  0
    8.3410   -0.0900   24.4400 C   0  0  0  0  0  0  0  0  0  0  0  0
    7.2700    0.2760   20.9280 C   0  0  0  0  0  0  0  0  0  0  0  0
    8.2030    0.5130   20.1800 O   0  0  0  0  0  0  0  0  0  0  0  0
    5.9620    0.3920   20.5540 N   0  0  0  0  0  0  0  0  0  0  0  0
    5.4860    0.9460   19.3480 C   0  0  0  0  0  0  0  0  0  0  0  0
    6.0640    0.6310   18.1000 C   0  0  0  0  0  0  0  0  0  0  0  0
    4.4630    1.8980   19.4070 C   0  0  0  0  0  0  0  0  0  0  0  0
    5.6910    1.2180   16.9440 N   0  0  0  0  0  0  0  0  0  0  0  0
    4.0840    2.5150   18.2120 C   0  0  0  0  0  0  0  0  0  0  0  0
    4.7410    2.1790   17.0220 C   0  0  0  0  0  0  0  0  0  0  0  0
  1  2  1  0
  2  3  1  0
  3  4  1  0
  4  7  2  0
  4  5  1  0
  5  6  2  0
  6  9  1  0
  6 10  1  0
  7  8  1  0
  8 10  2  0
  9 11  1  0
 11 12  2  0
 11 13  1  0
 13 14  1  0
 14 15  2  0
 14 16  1  0
 15 17  1  0
 16 18  2  0
 17 19  2  0
 18 19  1  0
M  END
