WPC2614_minimised.pdb
     RDKit          3D

 22 23  0  0  0  0  0  0  0  0999 V2000
   13.5120    5.2190   22.4060 C   0  0  0  0  0  0  0  0  0  0  0  0
   12.5450    4.7600   23.4150 N   0  0  0  0  0  0  0  0  0  0  0  0
   11.7500    5.8210   24.0570 C   0  0  0  0  0  0  0  0  0  0  0  0
   12.2430    3.4140   23.5470 C   0  0  0  0  0  0  0  0  0  0  0  0
   11.4510    2.9740   24.4510 N   0  0  0  0  0  0  0  0  0  0  0  0
   11.5090    1.5320   24.7320 C   0  0  0  0  0  0  0  0  0  0  0  0
   11.1170    0.6390   23.5770 C   0  0  0  0  0  0  0  0  0  0  0  0
   12.0980   -0.0610   22.8500 C   0  0  0  0  0  0  0  0  0  0  0  0
   11.7170   -0.9880   21.8690 C   0  0  0  0  0  0  0  0  0  0  0  0
   10.3560   -1.1810   21.5910 C   0  0  0  0  0  0  0  0  0  0  0  0
    9.3840   -0.4270   22.2610 C   0  0  0  0  0  0  0  0  0  0  0  0
    8.0350   -0.4860   21.8660 N   0  0  0  0  0  0  0  0  0  0  0  0
    7.6130   -0.2040   20.5990 C   0  0  0  0  0  0  0  0  0  0  0  0
    8.3570   -0.0890   19.6440 O   0  0  0  0  0  0  0  0  0  0  0  0
    6.2630   -0.0080   20.5160 N   0  0  0  0  0  0  0  0  0  0  0  0
    5.6070    0.5980   19.4210 C   0  0  0  0  0  0  0  0  0  0  0  0
    4.6660    1.6040   19.6680 C   0  0  0  0  0  0  0  0  0  0  0  0
    4.1480    2.2940   18.5650 C   0  0  0  0  0  0  0  0  0  0  0  0
    4.6010    1.9790   17.2760 C   0  0  0  0  0  0  0  0  0  0  0  0
    5.4720    0.9750   17.0260 N   0  0  0  0  0  0  0  0  0  0  0  0
    5.9640    0.3080   18.0870 C   0  0  0  0  0  0  0  0  0  0  0  0
    9.7610    0.4660   23.2690 C   0  0  0  0  0  0  0  0  0  0  0  0
  1  2  1  0
  2  3  1  0
  2  4  1  0
  4  5  2  0
  5  6  1  0
  6  7  1  0
  7 22  2  0
  7  8  1  0
  8  9  2  0
  9 10  1  0
 10 11  2  0
 11 12  1  0
 11 22  1  0
 12 13  1  0
 13 14  2  0
 13 15  1  0
 15 16  1  0
 16 17  2  0
 16 21  1  0
 17 18  1  0
 18 19  2  0
 19 20  1  0
 20 21  2  0
M  END
