WPC2574_minimised.pdb
     RDKit          3D

 24 26  0  0  1  0  0  0  0  0999 V2000
    9.6280    5.2850   23.1870 C   0  0  0  0  0  0  0  0  0  0  0  0
   11.0670    5.4340   23.5640 C   0  0  0  0  0  0  0  0  0  0  0  0
   11.5240    6.1220   24.6040 N   0  0  0  0  0  0  0  0  0  0  0  0
   12.9400    5.9950   24.5800 O   0  0  0  0  0  0  0  0  0  0  0  0
   13.3060    5.2120   23.4260 N   0  0  0  0  0  0  0  0  0  0  0  0
   14.4400    4.7560   23.2270 O   0  0  0  0  0  0  0  0  0  0  0  0
   12.1440    4.8650   22.8340 C   0  0  0  0  0  0  0  0  0  0  0  0
   12.2180    3.8600   21.3950 S   0  0  0  0  0  0  0  0  0  0  0  0
   11.6290    2.4410   22.2920 C   0  0  0  0  0  0  0  0  0  0  0  0
   12.4250    1.7910   23.2470 C   0  0  0  0  0  0  0  0  0  0  0  0
   11.9160    0.6790   23.9380 C   0  0  0  0  0  0  0  0  0  0  0  0
   10.6300    0.1880   23.6450 C   0  0  0  0  0  0  0  0  0  0  0  0
    9.8540    0.8110   22.6570 C   0  0  0  0  0  0  0  0  0  0  0  0
    8.5690    0.3210   22.3260 N   0  0  0  0  0  0  0  0  0  0  0  0
    8.0530    0.2980   21.0570 C   0  0  0  0  0  0  0  0  0  0  0  0
    8.7160    0.5050   20.0610 O   0  0  0  0  0  0  0  0  0  0  0  0
    6.7000    0.1080   20.9880 N   0  0  0  0  0  0  0  0  0  0  0  0
    5.9400    0.4970   19.8580 C   0  0  0  0  0  0  0  0  0  0  0  0
    4.9640    1.4880   20.0180 C   0  0  0  0  0  0  0  0  0  0  0  0
    4.3780    2.0180   18.8630 C   0  0  0  0  0  0  0  0  0  0  0  0
    4.7860    1.5540   17.6040 C   0  0  0  0  0  0  0  0  0  0  0  0
    5.6850    0.5580   17.4390 N   0  0  0  0  0  0  0  0  0  0  0  0
    6.2610    0.0590   18.5530 C   0  0  0  0  0  0  0  0  0  0  0  0
   10.3540    1.9470   22.0010 C   0  0  0  0  0  0  0  0  0  0  0  0
  1  2  1  0
  2  3  2  0
  2  7  1  0
  3  4  1  0
  4  5  1  0
  5  6  1  0
  5  7  1  0
  7  8  1  0
  8  9  1  0
  9 24  1  0
  9 10  2  0
 10 11  1  0
 11 12  2  0
 12 13  1  0
 13 14  1  0
 13 24  2  0
 14 15  1  0
 15 16  2  0
 15 17  1  0
 17 18  1  0
 18 19  2  0
 18 23  1  0
 19 20  1  0
 20 21  2  0
 21 22  1  0
 22 23  2  0
M  END
