WPC2478_minimised.pdb
     RDKit          3D

 24 25  0  0  0  0  0  0  0  0999 V2000
    7.3310    2.7930   23.2530 O   0  0  0  0  0  0  0  0  0  0  0  0
    8.2300    3.3320   22.6350 C   0  0  0  0  0  0  0  0  0  0  0  0
    8.6390    2.8010   21.4730 O   0  0  0  0  0  0  0  0  0  0  0  0
    9.2940    4.1970   23.3340 C   0  0  0  0  0  0  0  0  0  0  0  0
   10.0980    3.3750   24.2660 N   0  0  0  0  0  0  0  0  0  0  0  0
   11.4030    3.0400   23.9980 C   0  0  0  0  0  0  0  0  0  0  0  0
   12.1660    3.8250   23.4740 O   0  0  0  0  0  0  0  0  0  0  0  0
   11.7870    1.6100   24.3580 C   0  0  0  0  0  0  0  0  0  0  0  0
   11.3410    0.5790   23.3440 C   0  0  0  0  0  0  0  0  0  0  0  0
   12.2850   -0.1450   22.5970 C   0  0  0  0  0  0  0  0  0  0  0  0
   11.8580   -1.1530   21.7180 C   0  0  0  0  0  0  0  0  0  0  0  0
   10.4850   -1.3890   21.5460 C   0  0  0  0  0  0  0  0  0  0  0  0
    9.5450   -0.6130   22.2330 C   0  0  0  0  0  0  0  0  0  0  0  0
    8.1810   -0.6490   21.8880 N   0  0  0  0  0  0  0  0  0  0  0  0
    7.7280   -0.3130   20.6430 C   0  0  0  0  0  0  0  0  0  0  0  0
    8.4270   -0.2660   19.6490 O   0  0  0  0  0  0  0  0  0  0  0  0
    6.3990    0.0050   20.6210 N   0  0  0  0  0  0  0  0  0  0  0  0
    5.7210    0.6140   19.5370 C   0  0  0  0  0  0  0  0  0  0  0  0
    4.8190    1.6530   19.7970 C   0  0  0  0  0  0  0  0  0  0  0  0
    4.2470    2.3080   18.6990 C   0  0  0  0  0  0  0  0  0  0  0  0
    4.6140    1.9330   17.3980 C   0  0  0  0  0  0  0  0  0  0  0  0
    5.4540    0.9070   17.1390 N   0  0  0  0  0  0  0  0  0  0  0  0
    5.9940    0.2690   18.1950 C   0  0  0  0  0  0  0  0  0  0  0  0
    9.9720    0.3280   23.1700 C   0  0  0  0  0  0  0  0  0  0  0  0
  1  2  2  0
  2  3  1  0
  2  4  1  0
  4  5  1  0
  5  6  1  0
  6  7  2  0
  6  8  1  0
  8  9  1  0
  9 24  2  0
  9 10  1  0
 10 11  2  0
 11 12  1  0
 12 13  2  0
 13 14  1  0
 13 24  1  0
 14 15  1  0
 15 16  2  0
 15 17  1  0
 17 18  1  0
 18 19  2  0
 18 23  1  0
 19 20  1  0
 20 21  2  0
 21 22  1  0
 22 23  2  0
M  END
