WPC2787_minimised.pdb
     RDKit          3D

 20 21  0  0  0  0  0  0  0  0999 V2000
   15.3060    0.5370   19.8750 C   0  0  0  0  0  0  0  0  0  0  0  0
   14.3330    0.5480   21.0750 C   0  0  0  0  0  0  0  0  0  0  0  0
   13.2140   -0.9140   21.0600 S   0  0  1  0  0  0  0  0  0  0  0  0
   14.2510   -1.7610   22.0820 O   0  0  0  0  0  0  0  0  0  0  0  0
   11.9280   -0.1980   22.0960 C   0  0  0  0  0  0  0  0  0  0  0  0
   10.5910   -0.3660   21.7140 C   0  0  0  0  0  0  0  0  0  0  0  0
    9.5550    0.1720   22.4960 C   0  0  0  0  0  0  0  0  0  0  0  0
   12.2330    0.4970   23.2780 C   0  0  0  0  0  0  0  0  0  0  0  0
   11.1980    1.0370   24.0580 C   0  0  0  0  0  0  0  0  0  0  0  0
    8.2030    0.0560   22.1100 N   0  0  0  0  0  0  0  0  0  0  0  0
    9.8610    0.8690   23.6720 C   0  0  0  0  0  0  0  0  0  0  0  0
    7.7030    0.3020   20.8620 C   0  0  0  0  0  0  0  0  0  0  0  0
    8.3720    0.5340   19.8770 O   0  0  0  0  0  0  0  0  0  0  0  0
    6.3370    0.3040   20.8090 N   0  0  0  0  0  0  0  0  0  0  0  0
    5.5990    0.7580   19.6910 C   0  0  0  0  0  0  0  0  0  0  0  0
    5.9080    0.3330   18.3790 C   0  0  0  0  0  0  0  0  0  0  0  0
    4.6300    1.7520   19.8720 C   0  0  0  0  0  0  0  0  0  0  0  0
    5.3200    0.8390   17.2750 N   0  0  0  0  0  0  0  0  0  0  0  0
    4.0400    2.3010   18.7260 C   0  0  0  0  0  0  0  0  0  0  0  0
    4.4320    1.8420   17.4580 C   0  0  0  0  0  0  0  0  0  0  0  0
  1  2  1  0
  3  2  1  0
  3  4  1  1
  3  5  1  0
  5  8  2  0
  5  6  1  0
  6  7  2  0
  7 10  1  0
  7 11  1  0
  8  9  1  0
  9 11  2  0
 10 12  1  0
 12 13  2  0
 12 14  1  0
 14 15  1  0
 15 16  2  0
 15 17  1  0
 16 18  1  0
 17 19  2  0
 18 20  2  0
 19 20  1  0
M  END
