WPC2722_minimised.pdb
     RDKit          3D

 21 22  0  0  0  0  0  0  0  0999 V2000
   14.8280   -0.3170   20.3590 O   0  0  0  0  0  0  0  0  0  0  0  0
   14.1550   -1.1550   20.9420 N   0  0  0  0  0  0  0  0  0  0  0  0
   14.1310   -2.3470   20.6610 O   0  0  0  0  0  0  0  0  0  0  0  0
   13.1040   -0.6390   21.7580 O   0  0  0  0  0  0  0  0  0  0  0  0
   12.1040   -1.5570   22.2340 C   0  0  0  0  0  0  0  0  0  0  0  0
   10.9680   -0.7590   22.8480 C   0  0  0  0  0  0  0  0  0  0  0  0
    9.7010   -0.7920   22.2440 C   0  0  0  0  0  0  0  0  0  0  0  0
    8.6370   -0.0560   22.7880 C   0  0  0  0  0  0  0  0  0  0  0  0
   11.1630    0.0410   23.9890 C   0  0  0  0  0  0  0  0  0  0  0  0
   10.0910    0.7500   24.5530 C   0  0  0  0  0  0  0  0  0  0  0  0
    7.3890   -0.0160   22.1400 N   0  0  0  0  0  0  0  0  0  0  0  0
    8.8240    0.6960   23.9550 C   0  0  0  0  0  0  0  0  0  0  0  0
    7.1990    0.2520   20.8150 C   0  0  0  0  0  0  0  0  0  0  0  0
    8.0860    0.3370   19.9860 O   0  0  0  0  0  0  0  0  0  0  0  0
    5.8790    0.4410   20.5240 N   0  0  0  0  0  0  0  0  0  0  0  0
    5.3660    0.9760   19.3230 C   0  0  0  0  0  0  0  0  0  0  0  0
    5.8910    0.6280   18.0590 C   0  0  0  0  0  0  0  0  0  0  0  0
    4.3710    1.9570   19.4020 C   0  0  0  0  0  0  0  0  0  0  0  0
    5.4990    1.2130   16.9100 N   0  0  0  0  0  0  0  0  0  0  0  0
    3.9680    2.5680   18.2110 C   0  0  0  0  0  0  0  0  0  0  0  0
    4.5780    2.2000   17.0050 C   0  0  0  0  0  0  0  0  0  0  0  0
  1  2  1  0
  2  3  2  0
  2  4  1  0
  4  5  1  0
  5  6  1  0
  6  9  2  0
  6  7  1  0
  7  8  2  0
  8 11  1  0
  8 12  1  0
  9 10  1  0
 10 12  2  0
 11 13  1  0
 13 14  2  0
 13 15  1  0
 15 16  1  0
 16 17  2  0
 16 18  1  0
 17 19  1  0
 18 20  2  0
 19 21  2  0
 20 21  1  0
M  CHG  2   1  -1   2   1
M  END
