WPC2757_minimised.pdb
     RDKit          3D

 18 19  0  0  0  0  0  0  0  0999 V2000
   13.5350   -1.4010   21.1730 O   0  0  0  0  0  0  0  0  0  0  0  0
   13.5540   -0.2040   21.9470 N   0  0  0  0  0  0  0  0  0  0  0  0
   12.3710    0.3200   22.4520 C   0  0  0  0  0  0  0  0  0  0  0  0
   11.1060   -0.2250   22.1580 C   0  0  0  0  0  0  0  0  0  0  0  0
    9.9440    0.3620   22.6890 C   0  0  0  0  0  0  0  0  0  0  0  0
   12.4550    1.4570   23.2690 C   0  0  0  0  0  0  0  0  0  0  0  0
   11.2970    2.0350   23.8110 C   0  0  0  0  0  0  0  0  0  0  0  0
    8.6580   -0.0820   22.3160 N   0  0  0  0  0  0  0  0  0  0  0  0
   10.0430    1.4790   23.5290 C   0  0  0  0  0  0  0  0  0  0  0  0
    8.1550    0.0440   21.0510 C   0  0  0  0  0  0  0  0  0  0  0  0
    8.8380    0.2860   20.0790 O   0  0  0  0  0  0  0  0  0  0  0  0
    6.7910   -0.0500   20.9690 N   0  0  0  0  0  0  0  0  0  0  0  0
    6.0460    0.4110   19.8540 C   0  0  0  0  0  0  0  0  0  0  0  0
    6.3640    0.0260   18.5310 C   0  0  0  0  0  0  0  0  0  0  0  0
    5.0690    1.3940   20.0540 C   0  0  0  0  0  0  0  0  0  0  0  0
    5.7790    0.5640   17.4390 N   0  0  0  0  0  0  0  0  0  0  0  0
    4.4740    1.9640   18.9220 C   0  0  0  0  0  0  0  0  0  0  0  0
    4.8760    1.5480   17.6440 C   0  0  0  0  0  0  0  0  0  0  0  0
  1  2  1  0
  2  3  1  0
  3  4  2  0
  3  6  1  0
  4  5  1  0
  5  9  2  0
  5  8  1  0
  6  7  2  0
  7  9  1  0
  8 10  1  0
 10 11  2  0
 10 12  1  0
 12 13  1  0
 13 14  2  0
 13 15  1  0
 14 16  1  0
 15 17  2  0
 16 18  2  0
 17 18  1  0
M  END
