WPC2226_minimised.pdb
     RDKit          3D

 23 25  0  0  0  0  0  0  0  0999 V2000
    8.6200    0.3330   19.8420 O   0  0  0  0  0  0  0  0  0  0  0  0
    7.8880    0.0890   20.7790 C   0  0  0  0  0  0  0  0  0  0  0  0
    6.5320    0.2380   20.7110 N   0  0  0  0  0  0  0  0  0  0  0  0
    5.8240    0.7450   19.5960 C   0  0  0  0  0  0  0  0  0  0  0  0
    4.8310    1.7110   19.7980 C   0  0  0  0  0  0  0  0  0  0  0  0
    4.2420    2.2830   18.6640 C   0  0  0  0  0  0  0  0  0  0  0  0
    4.6720    1.8950   17.3870 C   0  0  0  0  0  0  0  0  0  0  0  0
    5.5860    0.9200   17.1810 N   0  0  0  0  0  0  0  0  0  0  0  0
    6.1560    0.3730   18.2740 C   0  0  0  0  0  0  0  0  0  0  0  0
    8.3300   -0.3630   21.9880 N   0  0  0  0  0  0  0  0  0  0  0  0
    9.6740   -0.6540   22.2840 C   0  0  0  0  0  0  0  0  0  0  0  0
   10.0160   -1.9470   22.7010 C   0  0  0  0  0  0  0  0  0  0  0  0
   11.3590   -2.2700   22.9350 C   0  0  0  0  0  0  0  0  0  0  0  0
   12.3510   -1.2920   22.7650 C   0  0  0  0  0  0  0  0  0  0  0  0
   12.0070    0.0280   22.4380 C   0  0  0  0  0  0  0  0  0  0  0  0
   13.2930    1.2720   22.4100 S   0  0  0  0  0  0  0  0  0  0  0  0
   12.5210    2.7520   23.0730 C   0  0  0  0  0  0  0  0  0  0  0  0
   11.4570    2.6950   23.9910 C   0  0  0  0  0  0  0  0  0  0  0  0
   10.9110    3.9040   24.4470 C   0  0  0  0  0  0  0  0  0  0  0  0
   11.4580    5.1180   24.0090 C   0  0  0  0  0  0  0  0  0  0  0  0
   12.5130    5.1800   23.1820 N   0  0  0  0  0  0  0  0  0  0  0  0
   13.0190    4.0210   22.7100 C   0  0  0  0  0  0  0  0  0  0  0  0
   10.6660    0.3320   22.1480 C   0  0  0  0  0  0  0  0  0  0  0  0
  1  2  2  0
  2  3  1  0
  2 10  1  0
  3  4  1  0
  4  5  2  0
  4  9  1  0
  5  6  1  0
  6  7  2  0
  7  8  1  0
  8  9  2  0
 10 11  1  0
 11 23  1  0
 11 12  2  0
 12 13  1  0
 13 14  2  0
 14 15  1  0
 15 16  1  0
 15 23  2  0
 16 17  1  0
 17 18  2  0
 17 22  1  0
 18 19  1  0
 19 20  2  0
 20 21  1  0
 21 22  2  0
M  END
