WPC2888_minimised.pdb
     RDKit          3D

 19 20  0  0  1  0  0  0  0  0999 V2000
   14.1720    0.7880   22.7710 C   0  0  0  0  0  0  0  0  0  0  0  0
   12.9830    0.1500   22.0370 C   0  0  1  0  0  0  0  0  0  0  0  0
   13.3730   -1.1090   21.4950 O   0  0  0  0  0  0  0  0  0  0  0  0
   11.7150    0.0060   22.8740 C   0  0  0  0  0  0  0  0  0  0  0  0
   10.4980   -0.1790   22.1990 C   0  0  0  0  0  0  0  0  0  0  0  0
    9.2770   -0.1890   22.8960 C   0  0  0  0  0  0  0  0  0  0  0  0
   11.7000    0.1230   24.2780 C   0  0  0  0  0  0  0  0  0  0  0  0
   10.4900    0.0660   24.9870 C   0  0  0  0  0  0  0  0  0  0  0  0
    8.0300   -0.2560   22.2320 N   0  0  0  0  0  0  0  0  0  0  0  0
    9.2790   -0.0790   24.2950 C   0  0  0  0  0  0  0  0  0  0  0  0
    7.7300    0.1300   20.9510 C   0  0  0  0  0  0  0  0  0  0  0  0
    8.5320    0.4470   20.0930 O   0  0  0  0  0  0  0  0  0  0  0  0
    6.3820    0.1380   20.7290 N   0  0  0  0  0  0  0  0  0  0  0  0
    5.7490    0.6770   19.5860 C   0  0  0  0  0  0  0  0  0  0  0  0
    6.1760    0.3590   18.2790 C   0  0  0  0  0  0  0  0  0  0  0  0
    4.7390    1.6300   19.7600 C   0  0  0  0  0  0  0  0  0  0  0  0
    5.6540    0.9220   17.1710 N   0  0  0  0  0  0  0  0  0  0  0  0
    4.2170    2.2380   18.6120 C   0  0  0  0  0  0  0  0  0  0  0  0
    4.7150    1.8800   17.3510 C   0  0  0  0  0  0  0  0  0  0  0  0
  2  1  1  1
  2  4  1  0
  2  3  1  0
  4  5  2  0
  4  7  1  0
  5  6  1  0
  6 10  2  0
  6  9  1  0
  7  8  2  0
  8 10  1  0
  9 11  1  0
 11 12  2  0
 11 13  1  0
 13 14  1  0
 14 15  2  0
 14 16  1  0
 15 17  1  0
 16 18  2  0
 17 19  2  0
 18 19  1  0
M  END
