WPC2341_minimised.pdb
     RDKit          3D

 24 26  0  0  1  0  0  0  0  0999 V2000
   14.3450    3.9370   22.8760 C   0  0  0  0  0  0  0  0  0  0  0  0
   12.8590    4.1360   22.7980 C   0  0  0  0  0  0  0  0  0  0  0  0
   12.2680    4.8200   21.8930 N   0  0  0  0  0  0  0  0  0  0  0  0
   10.9800    5.0090   22.3040 N   0  0  0  0  0  0  0  0  0  0  0  0
   10.7140    4.4670   23.5260 C   0  0  0  0  0  0  0  0  0  0  0  0
    9.6420    4.4770   24.0960 O   0  0  0  0  0  0  0  0  0  0  0  0
   12.0090    3.8620   24.0140 C   0  0  1  0  0  0  0  0  0  0  0  0
   11.8840    2.3750   24.4450 C   0  0  0  0  0  0  0  0  0  0  0  0
   11.4400    1.3740   23.4000 C   0  0  0  0  0  0  0  0  0  0  0  0
   12.3860    0.5250   22.7960 C   0  0  0  0  0  0  0  0  0  0  0  0
   11.9710   -0.5050   21.9390 C   0  0  0  0  0  0  0  0  0  0  0  0
   10.6030   -0.6900   21.6910 C   0  0  0  0  0  0  0  0  0  0  0  0
    9.6590    0.1620   22.2820 C   0  0  0  0  0  0  0  0  0  0  0  0
    8.2930    0.0230   21.9790 N   0  0  0  0  0  0  0  0  0  0  0  0
    7.7750    0.1810   20.7270 C   0  0  0  0  0  0  0  0  0  0  0  0
    8.4550    0.3420   19.7330 O   0  0  0  0  0  0  0  0  0  0  0  0
    6.4100    0.1920   20.6930 N   0  0  0  0  0  0  0  0  0  0  0  0
    5.6570    0.6400   19.5840 C   0  0  0  0  0  0  0  0  0  0  0  0
    4.6760    1.6180   19.7880 C   0  0  0  0  0  0  0  0  0  0  0  0
    4.0710    2.1740   18.6550 C   0  0  0  0  0  0  0  0  0  0  0  0
    4.4750    1.7550   17.3790 C   0  0  0  0  0  0  0  0  0  0  0  0
    5.3800    0.7720   17.1740 N   0  0  0  0  0  0  0  0  0  0  0  0
    5.9650    0.2410   18.2650 C   0  0  0  0  0  0  0  0  0  0  0  0
   10.0730    1.1880   23.1400 C   0  0  0  0  0  0  0  0  0  0  0  0
  1  2  1  0
  2  3  2  0
  2  7  1  0
  3  4  1  0
  4  5  1  0
  5  6  2  0
  5  7  1  0
  7  8  1  6
  8  9  1  0
  9 24  1  0
  9 10  2  0
 10 11  1  0
 11 12  2  0
 12 13  1  0
 13 14  1  0
 13 24  2  0
 14 15  1  0
 15 16  2  0
 15 17  1  0
 17 18  1  0
 18 19  2  0
 18 23  1  0
 19 20  1  0
 20 21  2  0
 21 22  1  0
 22 23  2  0
M  END
