WPC2770_minimised.pdb
     RDKit          3D

 23 24  0  0  0  0  0  0  0  0999 V2000
   15.1400    2.3600   18.0400 N   0  0  0  0  0  0  0  0  0  0  0  0
   15.0720    2.2600   19.4960 C   0  0  0  0  0  0  0  0  0  0  0  0
   14.8140    0.7990   19.9050 C   0  0  0  0  0  0  0  0  0  0  0  0
   14.2920    0.6740   21.3530 C   0  0  0  0  0  0  0  0  0  0  0  0
   13.7340   -0.7340   21.6600 C   0  0  0  0  0  0  0  0  0  0  0  0
   12.7330   -0.6390   22.7230 N   0  0  0  0  0  0  0  0  0  0  0  0
   11.8380   -1.8010   22.8430 C   0  0  0  0  0  0  0  0  0  0  0  0
   10.5250   -1.3670   23.4720 C   0  0  0  0  0  0  0  0  0  0  0  0
    9.3430   -1.4020   22.7100 C   0  0  0  0  0  0  0  0  0  0  0  0
    8.1460   -0.8740   23.2260 C   0  0  0  0  0  0  0  0  0  0  0  0
   10.4900   -0.8270   24.7700 C   0  0  0  0  0  0  0  0  0  0  0  0
    9.2880   -0.3480   25.3110 C   0  0  0  0  0  0  0  0  0  0  0  0
    6.9750   -0.7540   22.4430 N   0  0  0  0  0  0  0  0  0  0  0  0
    8.1180   -0.3690   24.5360 C   0  0  0  0  0  0  0  0  0  0  0  0
    6.8920   -0.4700   21.1040 C   0  0  0  0  0  0  0  0  0  0  0  0
    7.7920   -0.5760   20.2950 O   0  0  0  0  0  0  0  0  0  0  0  0
    5.6550    0.0030   20.7690 N   0  0  0  0  0  0  0  0  0  0  0  0
    5.2830    0.6400   19.5610 C   0  0  0  0  0  0  0  0  0  0  0  0
    5.8200    0.2800   18.3030 C   0  0  0  0  0  0  0  0  0  0  0  0
    4.3820    1.7100   19.6310 C   0  0  0  0  0  0  0  0  0  0  0  0
    5.5200    0.9270   17.1580 N   0  0  0  0  0  0  0  0  0  0  0  0
    4.0670    2.3780   18.4430 C   0  0  0  0  0  0  0  0  0  0  0  0
    4.6650    1.9730   17.2420 C   0  0  0  0  0  0  0  0  0  0  0  0
  1  2  1  0
  2  3  1  0
  3  4  1  0
  4  5  1  0
  5  6  1  0
  6  7  1  0
  7  8  1  0
  8 11  2  0
  8  9  1  0
  9 10  2  0
 10 13  1  0
 10 14  1  0
 11 12  1  0
 12 14  2  0
 13 15  1  0
 15 16  2  0
 15 17  1  0
 17 18  1  0
 18 19  2  0
 18 20  1  0
 19 21  1  0
 20 22  2  0
 21 23  2  0
 22 23  1  0
M  END
