WPC2147_minimised.pdb
     RDKit          3D

 23 25  0  0  1  0  0  0  0  0999 V2000
    8.4390    0.0900   19.6140 O   0  0  0  0  0  0  0  0  0  0  0  0
    7.7140    0.0010   20.5840 C   0  0  0  0  0  0  0  0  0  0  0  0
    6.3510    0.0500   20.5060 N   0  0  0  0  0  0  0  0  0  0  0  0
    5.6460    0.5950   19.4110 C   0  0  0  0  0  0  0  0  0  0  0  0
    4.6890    1.5870   19.6570 C   0  0  0  0  0  0  0  0  0  0  0  0
    4.1300    2.2370   18.5510 C   0  0  0  0  0  0  0  0  0  0  0  0
    4.5590    1.9000   17.2610 C   0  0  0  0  0  0  0  0  0  0  0  0
    5.4460    0.9090   17.0130 N   0  0  0  0  0  0  0  0  0  0  0  0
    5.9800    0.2790   18.0770 C   0  0  0  0  0  0  0  0  0  0  0  0
    8.1640   -0.0810   21.8680 N   0  0  0  0  0  0  0  0  0  0  0  0
    9.4800    0.2110   22.2680 C   0  0  0  0  0  0  0  0  0  0  0  0
   10.5720   -0.5040   21.7540 C   0  0  0  0  0  0  0  0  0  0  0  0
   11.8750   -0.1820   22.1650 C   0  0  0  0  0  0  0  0  0  0  0  0
   12.0770    0.8480   23.0980 C   0  0  0  0  0  0  0  0  0  0  0  0
   10.9830    1.5770   23.6020 C   0  0  0  0  0  0  0  0  0  0  0  0
   11.1640    2.5840   24.7240 C   0  0  0  0  0  0  0  0  0  0  0  0
   11.5300    4.0410   24.3400 C   0  0  1  0  0  0  0  0  0  0  0  0
   12.8560    4.2300   23.5750 C   0  0  0  0  0  0  0  0  0  0  0  0
   12.4320    4.9190   22.2810 C   0  0  0  0  0  0  0  0  0  0  0  0
   11.1790    5.5190   22.6360 O   0  0  0  0  0  0  0  0  0  0  0  0
   10.4710    4.7560   23.5070 C   0  0  0  0  0  0  0  0  0  0  0  0
    9.4240    5.1380   23.9940 O   0  0  0  0  0  0  0  0  0  0  0  0
    9.6850    1.2520   23.1810 C   0  0  0  0  0  0  0  0  0  0  0  0
  1  2  2  0
  2  3  1  0
  2 10  1  0
  3  4  1  0
  4  5  2  0
  4  9  1  0
  5  6  1  0
  6  7  2  0
  7  8  1  0
  8  9  2  0
 10 11  1  0
 11 23  1  0
 11 12  2  0
 12 13  1  0
 13 14  2  0
 14 15  1  0
 15 16  1  0
 15 23  2  0
 17 16  1  6
 17 18  1  0
 17 21  1  0
 18 19  1  0
 19 20  1  0
 20 21  1  0
 21 22  2  0
M  END
