WPC2675_minimised.pdb
     RDKit          3D

 24 25  0  0  0  0  0  0  0  0999 V2000
    6.6870    3.3040   22.0270 C   0  0  0  0  0  0  0  0  0  0  0  0
    7.5900    4.5390   21.9760 C   0  0  0  0  0  0  0  0  0  0  0  0
    8.5990    4.3970   22.9790 O   0  0  0  0  0  0  0  0  0  0  0  0
    9.5600    5.4790   22.9990 C   0  0  0  0  0  0  0  0  0  0  0  0
   10.9070    4.9790   23.5110 C   0  0  0  0  0  0  0  0  0  0  0  0
   11.4260    5.4070   24.5260 O   0  0  0  0  0  0  0  0  0  0  0  0
   11.4360    3.9340   22.7950 N   0  0  0  0  0  0  0  0  0  0  0  0
   12.1340    2.8240   23.4430 C   0  0  0  0  0  0  0  0  0  0  0  0
   11.7200    1.4640   22.9010 C   0  0  0  0  0  0  0  0  0  0  0  0
   12.6950    0.5110   22.5530 C   0  0  0  0  0  0  0  0  0  0  0  0
   12.3130   -0.7340   22.0270 C   0  0  0  0  0  0  0  0  0  0  0  0
   10.9530   -1.0340   21.8540 C   0  0  0  0  0  0  0  0  0  0  0  0
    9.9760   -0.0920   22.2110 C   0  0  0  0  0  0  0  0  0  0  0  0
    8.6130   -0.3430   21.9480 N   0  0  0  0  0  0  0  0  0  0  0  0
    8.0460   -0.1570   20.7190 C   0  0  0  0  0  0  0  0  0  0  0  0
    8.6950    0.0990   19.7250 O   0  0  0  0  0  0  0  0  0  0  0  0
    6.6760   -0.2100   20.6970 N   0  0  0  0  0  0  0  0  0  0  0  0
    5.9010    0.3140   19.6310 C   0  0  0  0  0  0  0  0  0  0  0  0
    4.9090    1.2610   19.9150 C   0  0  0  0  0  0  0  0  0  0  0  0
    4.3340    1.9510   18.8390 C   0  0  0  0  0  0  0  0  0  0  0  0
    4.7470    1.6590   17.5310 C   0  0  0  0  0  0  0  0  0  0  0  0
    5.6450    0.6920   17.2420 N   0  0  0  0  0  0  0  0  0  0  0  0
    6.2170    0.0480   18.2800 C   0  0  0  0  0  0  0  0  0  0  0  0
   10.3580    1.1500   22.7380 C   0  0  0  0  0  0  0  0  0  0  0  0
  1  2  1  0
  2  3  1  0
  3  4  1  0
  4  5  1  0
  5  6  2  0
  5  7  1  0
  7  8  1  0
  8  9  1  0
  9 24  2  0
  9 10  1  0
 10 11  2  0
 11 12  1  0
 12 13  2  0
 13 14  1  0
 13 24  1  0
 14 15  1  0
 15 16  2  0
 15 17  1  0
 17 18  1  0
 18 19  2  0
 18 23  1  0
 19 20  1  0
 20 21  2  0
 21 22  1  0
 22 23  2  0
M  END
