WPC2698_minimised.pdb
     RDKit          3D

 21 23  0  0  1  0  0  0  0  0999 V2000
   13.2010   -0.8120   21.3800 C   0  0  0  0  0  0  0  0  0  0  0  0
   12.6650   -1.8120   22.4010 C   0  0  0  0  0  0  0  0  0  0  0  0
   12.4560   -1.0020   23.5680 O   0  0  0  0  0  0  0  0  0  0  0  0
   13.0100    0.3150   23.3970 C   0  0  2  0  0  0  0  0  0  0  0  0
   11.8890    1.3300   23.2150 C   0  0  0  0  0  0  0  0  0  0  0  0
   10.5550    0.9140   23.0480 C   0  0  0  0  0  0  0  0  0  0  0  0
    9.5330    1.8510   22.8760 C   0  0  0  0  0  0  0  0  0  0  0  0
   12.1810    2.7070   23.1990 C   0  0  0  0  0  0  0  0  0  0  0  0
   11.1510    3.6510   23.0500 C   0  0  0  0  0  0  0  0  0  0  0  0
   13.8560    0.1880   22.2160 N   0  0  0  0  0  0  0  0  0  0  0  0
    8.2420    1.3990   22.5470 N   0  0  0  0  0  0  0  0  0  0  0  0
    9.8240    3.2210   22.8940 C   0  0  0  0  0  0  0  0  0  0  0  0
    7.8970    0.9890   21.2890 C   0  0  0  0  0  0  0  0  0  0  0  0
    8.6960    0.8630   20.3800 O   0  0  0  0  0  0  0  0  0  0  0  0
    6.5540    0.7860   21.1280 N   0  0  0  0  0  0  0  0  0  0  0  0
    5.8760    0.9590   19.8980 C   0  0  0  0  0  0  0  0  0  0  0  0
    6.3320    0.4100   18.6770 C   0  0  0  0  0  0  0  0  0  0  0  0
    4.8010    1.8540   19.8820 C   0  0  0  0  0  0  0  0  0  0  0  0
    5.7920    0.7210   17.4770 N   0  0  0  0  0  0  0  0  0  0  0  0
    4.2640    2.2010   18.6400 C   0  0  0  0  0  0  0  0  0  0  0  0
    4.8100    1.6510   17.4750 C   0  0  0  0  0  0  0  0  0  0  0  0
  1  2  1  0
  1 10  1  0
  2  3  1  0
  3  4  1  0
  4 10  1  0
  4  5  1  6
  5  8  1  0
  5  6  2  0
  6  7  1  0
  7 11  1  0
  7 12  2  0
  8  9  2  0
  9 12  1  0
 11 13  1  0
 13 14  2  0
 13 15  1  0
 15 16  1  0
 16 17  2  0
 16 18  1  0
 17 19  1  0
 18 20  2  0
 19 21  2  0
 20 21  1  0
M  END
