WPC2659_minimised.pdb
     RDKit          3D

 23 25  0  0  0  0  0  0  0  0999 V2000
    8.5200   -0.2000   19.6290 O   0  0  0  0  0  0  0  0  0  0  0  0
    7.7530   -0.5040   20.5210 C   0  0  0  0  0  0  0  0  0  0  0  0
    6.3940   -0.4310   20.4000 N   0  0  0  0  0  0  0  0  0  0  0  0
    5.7330    0.2600   19.3610 C   0  0  0  0  0  0  0  0  0  0  0  0
    4.7940    1.2460   19.6870 C   0  0  0  0  0  0  0  0  0  0  0  0
    4.2600    2.0080   18.6390 C   0  0  0  0  0  0  0  0  0  0  0  0
    4.6950    1.7780   17.3260 C   0  0  0  0  0  0  0  0  0  0  0  0
    5.5750    0.8040   17.0020 N   0  0  0  0  0  0  0  0  0  0  0  0
    6.0910    0.0750   18.0100 C   0  0  0  0  0  0  0  0  0  0  0  0
    8.1340   -0.8670   21.7790 N   0  0  0  0  0  0  0  0  0  0  0  0
    9.3480   -0.4550   22.3500 C   0  0  0  0  0  0  0  0  0  0  0  0
   10.5890   -0.8770   21.8520 C   0  0  0  0  0  0  0  0  0  0  0  0
   11.7740   -0.3320   22.3750 C   0  0  0  0  0  0  0  0  0  0  0  0
   11.7070    0.6380   23.3900 C   0  0  0  0  0  0  0  0  0  0  0  0
   10.4590    1.0520   23.8900 C   0  0  0  0  0  0  0  0  0  0  0  0
   10.3510    2.1010   24.9770 C   0  0  0  0  0  0  0  0  0  0  0  0
   10.5500    3.5370   24.4590 C   0  0  0  0  0  0  0  0  0  0  0  0
   11.9430    3.6910   24.1600 O   0  0  0  0  0  0  0  0  0  0  0  0
   12.3110    4.9520   23.5920 C   0  0  0  0  0  0  0  0  0  0  0  0
   13.7280    4.7570   23.0780 C   0  0  0  0  0  0  0  0  0  0  0  0
   13.9340    4.3220   21.6540 C   0  0  0  0  0  0  0  0  0  0  0  0
   14.3550    5.7000   22.0860 C   0  0  0  0  0  0  0  0  0  0  0  0
    9.2840    0.4950   23.3710 C   0  0  0  0  0  0  0  0  0  0  0  0
  1  2  2  0
  2  3  1  0
  2 10  1  0
  3  4  1  0
  4  5  2  0
  4  9  1  0
  5  6  1  0
  6  7  2  0
  7  8  1  0
  8  9  2  0
 10 11  1  0
 11 23  1  0
 11 12  2  0
 12 13  1  0
 13 14  2  0
 14 15  1  0
 15 16  1  0
 15 23  2  0
 16 17  1  0
 17 18  1  0
 18 19  1  0
 19 20  1  0
 20 21  1  0
 20 22  1  0
 21 22  1  0
M  END
