WPC2596_minimised.pdb
     RDKit          3D

 23 24  0  0  1  0  0  0  0  0999 V2000
    8.2240    5.4300   22.0990 C   0  0  0  0  0  0  0  0  0  0  0  0
    9.4990    4.7760   22.3790 N   0  0  0  0  0  0  0  0  0  0  0  0
   10.3020    5.0610   23.4540 C   0  0  0  0  0  0  0  0  0  0  0  0
    9.9260    5.7740   24.3650 O   0  0  0  0  0  0  0  0  0  0  0  0
   11.7140    4.4260   23.4300 C   0  0  2  0  0  0  0  0  0  0  0  0
   12.4530    4.4960   22.1400 N   0  0  0  0  0  0  0  0  0  0  0  0
   11.7020    2.9990   24.0390 C   0  0  0  0  0  0  0  0  0  0  0  0
   11.3310    1.8120   23.1670 C   0  0  0  0  0  0  0  0  0  0  0  0
   12.3350    0.9180   22.7470 C   0  0  0  0  0  0  0  0  0  0  0  0
   12.0040   -0.2480   22.0390 C   0  0  0  0  0  0  0  0  0  0  0  0
   10.6600   -0.5340   21.7640 C   0  0  0  0  0  0  0  0  0  0  0  0
    9.6550    0.3410   22.2020 C   0  0  0  0  0  0  0  0  0  0  0  0
    8.3090    0.0890   21.8840 N   0  0  0  0  0  0  0  0  0  0  0  0
    7.8170    0.1400   20.6150 C   0  0  0  0  0  0  0  0  0  0  0  0
    8.5130    0.2170   19.6230 O   0  0  0  0  0  0  0  0  0  0  0  0
    6.4530    0.1830   20.5660 N   0  0  0  0  0  0  0  0  0  0  0  0
    5.7260    0.6810   19.4610 C   0  0  0  0  0  0  0  0  0  0  0  0
    4.7730    1.6820   19.6810 C   0  0  0  0  0  0  0  0  0  0  0  0
    4.2080    2.2990   18.5590 C   0  0  0  0  0  0  0  0  0  0  0  0
    4.6330    1.9260   17.2770 C   0  0  0  0  0  0  0  0  0  0  0  0
    5.5110    0.9220   17.0550 N   0  0  0  0  0  0  0  0  0  0  0  0
    6.0440    0.3180   18.1340 C   0  0  0  0  0  0  0  0  0  0  0  0
    9.9870    1.5070   22.9060 C   0  0  0  0  0  0  0  0  0  0  0  0
  1  2  1  0
  2  3  1  0
  3  4  2  0
  3  5  1  0
  5  6  1  6
  5  7  1  0
  7  8  1  0
  8 23  2  0
  8  9  1  0
  9 10  2  0
 10 11  1  0
 11 12  2  0
 12 13  1  0
 12 23  1  0
 13 14  1  0
 14 15  2  0
 14 16  1  0
 16 17  1  0
 17 18  2  0
 17 22  1  0
 18 19  1  0
 19 20  2  0
 20 21  1  0
 21 22  2  0
M  END
