WPC2470_minimised.pdb
     RDKit          3D

 24 26  0  0  0  0  0  0  0  0999 V2000
   14.5790    5.0530   22.2600 C   0  0  0  0  0  0  0  0  0  0  0  0
   13.2720    5.2740   22.9690 C   0  0  0  0  0  0  0  0  0  0  0  0
   12.9640    6.1170   24.0190 N   0  0  0  0  0  0  0  0  0  0  0  0
   11.6300    6.1290   24.3280 N   0  0  0  0  0  0  0  0  0  0  0  0
   11.0800    5.2650   23.4890 C   0  0  0  0  0  0  0  0  0  0  0  0
    9.6130    5.0090   23.3400 C   0  0  0  0  0  0  0  0  0  0  0  0
   12.0870    4.6970   22.6630 C   0  0  0  0  0  0  0  0  0  0  0  0
   12.0310    3.5710   21.3140 S   0  0  0  0  0  0  0  0  0  0  0  0
   11.4060    2.2280   22.2940 C   0  0  0  0  0  0  0  0  0  0  0  0
   12.1520    1.6330   23.3220 C   0  0  0  0  0  0  0  0  0  0  0  0
   11.6190    0.5360   24.0220 C   0  0  0  0  0  0  0  0  0  0  0  0
   10.3660    0.0070   23.6660 C   0  0  0  0  0  0  0  0  0  0  0  0
    9.6400    0.5840   22.6130 C   0  0  0  0  0  0  0  0  0  0  0  0
    8.3810    0.0710   22.2320 N   0  0  0  0  0  0  0  0  0  0  0  0
    7.8970    0.0680   20.9500 C   0  0  0  0  0  0  0  0  0  0  0  0
    8.5790    0.2740   19.9650 O   0  0  0  0  0  0  0  0  0  0  0  0
    6.5420   -0.0910   20.8690 N   0  0  0  0  0  0  0  0  0  0  0  0
    5.7950    0.3620   19.7560 C   0  0  0  0  0  0  0  0  0  0  0  0
    4.8360    1.3620   19.9580 C   0  0  0  0  0  0  0  0  0  0  0  0
    4.2540    1.9440   18.8260 C   0  0  0  0  0  0  0  0  0  0  0  0
    4.6540    1.5230   17.5490 C   0  0  0  0  0  0  0  0  0  0  0  0
    5.5440    0.5260   17.3440 N   0  0  0  0  0  0  0  0  0  0  0  0
    6.1140   -0.0250   18.4350 C   0  0  0  0  0  0  0  0  0  0  0  0
   10.1570    1.7090   21.9530 C   0  0  0  0  0  0  0  0  0  0  0  0
  1  2  1  0
  2  3  1  0
  2  7  2  0
  3  4  1  0
  4  5  2  0
  5  6  1  0
  5  7  1  0
  7  8  1  0
  8  9  1  0
  9 24  1  0
  9 10  2  0
 10 11  1  0
 11 12  2  0
 12 13  1  0
 13 14  1  0
 13 24  2  0
 14 15  1  0
 15 16  2  0
 15 17  1  0
 17 18  1  0
 18 19  2  0
 18 23  1  0
 19 20  1  0
 20 21  2  0
 21 22  1  0
 22 23  2  0
M  END
