WPC2170_minimised.pdb
     RDKit          3D

 24 25  0  0  0  0  0  0  0  0999 V2000
    6.8560    4.6330   21.5250 N   0  0  0  0  0  0  0  0  0  0  0  0
    7.2160    3.3610   22.1590 C   0  0  0  0  0  0  0  0  0  0  0  0
    8.4210    3.5490   23.1100 C   0  0  0  0  0  0  0  0  0  0  0  0
    9.7130    3.4100   22.4270 N   0  0  0  0  0  0  0  0  0  0  0  0
   11.0630    3.9310   23.1720 S   0  0  0  0  0  0  0  0  0  0  0  0
   11.8320    4.4760   22.0830 O   0  0  0  0  0  0  0  0  0  0  0  0
   10.6460    4.8000   24.2520 O   0  0  0  0  0  0  0  0  0  0  0  0
   11.8690    2.4710   23.8430 C   0  0  0  0  0  0  0  0  0  0  0  0
   11.6880    1.1360   23.1400 C   0  0  0  0  0  0  0  0  0  0  0  0
   12.7890    0.4470   22.5990 C   0  0  0  0  0  0  0  0  0  0  0  0
   12.5930   -0.7620   21.9090 C   0  0  0  0  0  0  0  0  0  0  0  0
   11.2930   -1.2680   21.7420 C   0  0  0  0  0  0  0  0  0  0  0  0
   10.2010   -0.5900   22.2930 C   0  0  0  0  0  0  0  0  0  0  0  0
    8.8750   -0.9190   21.9470 N   0  0  0  0  0  0  0  0  0  0  0  0
    8.2480   -0.3430   20.8730 C   0  0  0  0  0  0  0  0  0  0  0  0
    8.8280    0.3240   20.0410 O   0  0  0  0  0  0  0  0  0  0  0  0
    6.8940   -0.5320   20.8050 N   0  0  0  0  0  0  0  0  0  0  0  0
    6.0960    0.0640   19.7950 C   0  0  0  0  0  0  0  0  0  0  0  0
    5.1270    1.0150   20.1360 C   0  0  0  0  0  0  0  0  0  0  0  0
    4.4920    1.7010   19.0910 C   0  0  0  0  0  0  0  0  0  0  0  0
    4.8470    1.4280   17.7610 C   0  0  0  0  0  0  0  0  0  0  0  0
    5.7550    0.4860   17.4230 N   0  0  0  0  0  0  0  0  0  0  0  0
    6.3790   -0.1580   18.4300 C   0  0  0  0  0  0  0  0  0  0  0  0
   10.4110    0.5690   23.0390 C   0  0  0  0  0  0  0  0  0  0  0  0
  1  2  1  0
  2  3  1  0
  3  4  1  0
  4  5  1  0
  5  6  2  0
  5  7  2  0
  5  8  1  0
  8  9  1  0
  9 24  2  0
  9 10  1  0
 10 11  2  0
 11 12  1  0
 12 13  2  0
 13 14  1  0
 13 24  1  0
 14 15  1  0
 15 16  2  0
 15 17  1  0
 17 18  1  0
 18 19  2  0
 18 23  1  0
 19 20  1  0
 20 21  2  0
 21 22  1  0
 22 23  2  0
M  END
