WPC2145_minimised.pdb
     RDKit          3D

 24 25  0  0  0  0  0  0  0  0999 V2000
   11.7660    5.1820   26.3540 C   0  0  0  0  0  0  0  0  0  0  0  0
   12.0880    5.9480   25.1480 N   0  0  0  0  0  0  0  0  0  0  0  0
   12.5770    7.3000   25.4770 C   0  0  0  0  0  0  0  0  0  0  0  0
   10.9880    5.8720   24.1680 C   0  0  0  0  0  0  0  0  0  0  0  0
   11.0960    4.5860   23.3300 C   0  0  0  0  0  0  0  0  0  0  0  0
   12.3660    4.5900   22.4480 C   0  0  0  0  0  0  0  0  0  0  0  0
   12.5720    3.2760   21.6800 C   0  0  0  0  0  0  0  0  0  0  0  0
   13.3480    2.0080   22.7710 S   0  0  0  0  0  0  0  0  0  0  0  0
   12.2530    0.6010   22.7590 C   0  0  0  0  0  0  0  0  0  0  0  0
   12.8140   -0.6780   22.8700 C   0  0  0  0  0  0  0  0  0  0  0  0
   11.9890   -1.8130   22.9360 C   0  0  0  0  0  0  0  0  0  0  0  0
   10.5980   -1.6750   22.8180 C   0  0  0  0  0  0  0  0  0  0  0  0
   10.0390   -0.4010   22.6480 C   0  0  0  0  0  0  0  0  0  0  0  0
    8.6660   -0.2720   22.3610 N   0  0  0  0  0  0  0  0  0  0  0  0
    8.1930    0.2190   21.1750 C   0  0  0  0  0  0  0  0  0  0  0  0
    8.9080    0.6630   20.3000 O   0  0  0  0  0  0  0  0  0  0  0  0
    6.8340    0.1540   21.0430 N   0  0  0  0  0  0  0  0  0  0  0  0
    6.1170    0.6040   19.9080 C   0  0  0  0  0  0  0  0  0  0  0  0
    5.1020    1.5540   20.0690 C   0  0  0  0  0  0  0  0  0  0  0  0
    4.5050    2.0680   18.9110 C   0  0  0  0  0  0  0  0  0  0  0  0
    4.9320    1.6200   17.6510 C   0  0  0  0  0  0  0  0  0  0  0  0
    5.8710    0.6610   17.4860 N   0  0  0  0  0  0  0  0  0  0  0  0
    6.4670    0.1910   18.6020 C   0  0  0  0  0  0  0  0  0  0  0  0
   10.8600    0.7380   22.6550 C   0  0  0  0  0  0  0  0  0  0  0  0
  1  2  1  0
  2  3  1  0
  2  4  1  0
  4  5  1  0
  5  6  1  0
  6  7  1  0
  7  8  1  0
  8  9  1  0
  9 24  2  0
  9 10  1  0
 10 11  2  0
 11 12  1  0
 12 13  2  0
 13 14  1  0
 13 24  1  0
 14 15  1  0
 15 16  2  0
 15 17  1  0
 17 18  1  0
 18 19  2  0
 18 23  1  0
 19 20  1  0
 20 21  2  0
 21 22  1  0
 22 23  2  0
M  END
