WPC2727_minimised.pdb
     RDKit          3D

 20 21  0  0  1  0  0  0  0  0999 V2000
   13.7790   -1.4890   21.1620 C   0  0  0  0  0  0  0  0  0  0  0  0
   12.4290   -0.9450   21.3150 N   0  0  0  0  0  0  0  0  0  0  0  0
   12.0170   -0.8170   22.7160 C   0  0  2  0  0  0  0  0  0  0  0  0
   11.5220   -2.1770   23.2520 C   0  0  0  0  0  0  0  0  0  0  0  0
   10.9760    0.2740   22.8910 C   0  0  0  0  0  0  0  0  0  0  0  0
    9.6760    0.0860   22.4040 C   0  0  0  0  0  0  0  0  0  0  0  0
    8.7060    1.0770   22.5790 C   0  0  0  0  0  0  0  0  0  0  0  0
   11.3040    1.4820   23.5350 C   0  0  0  0  0  0  0  0  0  0  0  0
   10.3320    2.4830   23.7030 C   0  0  0  0  0  0  0  0  0  0  0  0
    7.4280    0.8880   22.0330 N   0  0  0  0  0  0  0  0  0  0  0  0
    9.0270    2.2770   23.2290 C   0  0  0  0  0  0  0  0  0  0  0  0
    7.1870    0.6810   20.7070 C   0  0  0  0  0  0  0  0  0  0  0  0
    8.0520    0.5100   19.8690 O   0  0  0  0  0  0  0  0  0  0  0  0
    5.8540    0.7400   20.4220 N   0  0  0  0  0  0  0  0  0  0  0  0
    5.3130    1.1390   19.1830 C   0  0  0  0  0  0  0  0  0  0  0  0
    5.8680    0.7490   17.9440 C   0  0  0  0  0  0  0  0  0  0  0  0
    4.2900    2.0920   19.2010 C   0  0  0  0  0  0  0  0  0  0  0  0
    5.5000    1.2930   16.7670 N   0  0  0  0  0  0  0  0  0  0  0  0
    3.9030    2.6530   17.9800 C   0  0  0  0  0  0  0  0  0  0  0  0
    4.5650    2.2710   16.8090 C   0  0  0  0  0  0  0  0  0  0  0  0
  1  2  1  0
  2  3  1  0
  3  4  1  6
  3  5  1  0
  5  8  2  0
  5  6  1  0
  6  7  2  0
  7 10  1  0
  7 11  1  0
  8  9  1  0
  9 11  2  0
 10 12  1  0
 12 13  2  0
 12 14  1  0
 14 15  1  0
 15 16  2  0
 15 17  1  0
 16 18  1  0
 17 19  2  0
 18 20  2  0
 19 20  1  0
M  END
