WPC2308_minimised.pdb
     RDKit          3D

 22 24  0  0  0  0  0  0  0  0999 V2000
    8.6540    0.1070   19.8310 O   0  0  0  0  0  0  0  0  0  0  0  0
    7.9240   -0.1590   20.7630 C   0  0  0  0  0  0  0  0  0  0  0  0
    6.5640   -0.2240   20.6440 N   0  0  0  0  0  0  0  0  0  0  0  0
    5.8560    0.3540   19.5650 C   0  0  0  0  0  0  0  0  0  0  0  0
    4.9100    1.3500   19.8340 C   0  0  0  0  0  0  0  0  0  0  0  0
    4.3500    2.0300   18.7450 C   0  0  0  0  0  0  0  0  0  0  0  0
    4.7640    1.7120   17.4440 C   0  0  0  0  0  0  0  0  0  0  0  0
    5.6460    0.7230   17.1740 N   0  0  0  0  0  0  0  0  0  0  0  0
    6.1880    0.0720   18.2230 C   0  0  0  0  0  0  0  0  0  0  0  0
    8.3600   -0.3180   22.0460 N   0  0  0  0  0  0  0  0  0  0  0  0
    9.5620    0.2480   22.5090 C   0  0  0  0  0  0  0  0  0  0  0  0
   10.8050   -0.3530   22.2630 C   0  0  0  0  0  0  0  0  0  0  0  0
   11.9810    0.2870   22.6910 C   0  0  0  0  0  0  0  0  0  0  0  0
   11.9080    1.5260   23.3540 C   0  0  0  0  0  0  0  0  0  0  0  0
   10.6600    2.1500   23.5620 C   0  0  0  0  0  0  0  0  0  0  0  0
   10.5170    3.5160   24.2290 C   0  0  0  0  0  0  0  0  0  0  0  0
   11.5510    4.5080   23.9180 N   0  0  0  0  0  0  0  0  0  0  0  0
   12.3520    4.6080   22.8070 C   0  0  0  0  0  0  0  0  0  0  0  0
   13.1750    5.6600   23.0780 C   0  0  0  0  0  0  0  0  0  0  0  0
   12.7920    6.2130   24.2730 N   0  0  0  0  0  0  0  0  0  0  0  0
   11.8070    5.5270   24.7760 N   0  0  0  0  0  0  0  0  0  0  0  0
    9.4940    1.4910   23.1480 C   0  0  0  0  0  0  0  0  0  0  0  0
  1  2  2  0
  2  3  1  0
  2 10  1  0
  3  4  1  0
  4  5  2  0
  4  9  1  0
  5  6  1  0
  6  7  2  0
  7  8  1  0
  8  9  2  0
 10 11  1  0
 11 22  1  0
 11 12  2  0
 12 13  1  0
 13 14  2  0
 14 15  1  0
 15 16  1  0
 15 22  2  0
 16 17  1  0
 17 18  1  0
 17 21  1  0
 18 19  2  0
 19 20  1  0
 20 21  2  0
M  END
