WPC2189_minimised.pdb
     RDKit          3D

 23 24  0  0  0  0  0  0  0  0999 V2000
    7.7710    4.9060   21.9960 C   0  0  0  0  0  0  0  0  0  0  0  0
    8.7240    5.1780   22.6690 C   0  0  0  0  0  0  0  0  0  0  0  0
    9.9220    5.5320   23.4350 C   0  0  0  0  0  0  0  0  0  0  0  0
   11.1240    4.8970   22.8700 N   0  0  0  0  0  0  0  0  0  0  0  0
   11.6010    3.7280   23.3960 N   0  0  0  0  0  0  0  0  0  0  0  0
   10.9590    2.9470   24.1940 C   0  0  0  0  0  0  0  0  0  0  0  0
   11.4810    1.5740   24.5270 C   0  0  0  0  0  0  0  0  0  0  0  0
   11.1100    0.5460   23.4840 C   0  0  0  0  0  0  0  0  0  0  0  0
   12.1020   -0.1640   22.7860 C   0  0  0  0  0  0  0  0  0  0  0  0
   11.7350   -1.1530   21.8610 C   0  0  0  0  0  0  0  0  0  0  0  0
   10.3770   -1.3930   21.6020 C   0  0  0  0  0  0  0  0  0  0  0  0
    9.3930   -0.6320   22.2440 C   0  0  0  0  0  0  0  0  0  0  0  0
    8.0520   -0.6970   21.8240 N   0  0  0  0  0  0  0  0  0  0  0  0
    7.6510   -0.2900   20.5830 C   0  0  0  0  0  0  0  0  0  0  0  0
    8.4110   -0.0540   19.6640 O   0  0  0  0  0  0  0  0  0  0  0  0
    6.2990   -0.1120   20.4890 N   0  0  0  0  0  0  0  0  0  0  0  0
    5.6570    0.5420   19.4120 C   0  0  0  0  0  0  0  0  0  0  0  0
    4.7180    1.5460   19.6810 C   0  0  0  0  0  0  0  0  0  0  0  0
    4.2140    2.2710   18.5940 C   0  0  0  0  0  0  0  0  0  0  0  0
    4.6780    1.9950   17.3000 C   0  0  0  0  0  0  0  0  0  0  0  0
    5.5500    0.9990   17.0300 N   0  0  0  0  0  0  0  0  0  0  0  0
    6.0280    0.2960   18.0740 C   0  0  0  0  0  0  0  0  0  0  0  0
    9.7560    0.3150   23.2050 C   0  0  0  0  0  0  0  0  0  0  0  0
  1  2  3  0
  2  3  1  0
  3  4  1  0
  4  5  1  0
  5  6  2  0
  6  7  1  0
  7  8  1  0
  8 23  2  0
  8  9  1  0
  9 10  2  0
 10 11  1  0
 11 12  2  0
 12 13  1  0
 12 23  1  0
 13 14  1  0
 14 15  2  0
 14 16  1  0
 16 17  1  0
 17 18  2  0
 17 22  1  0
 18 19  1  0
 19 20  2  0
 20 21  1  0
 21 22  2  0
M  END
