WPC2030_minimised.pdb
     RDKit          3D

 23 24  0  0  1  0  0  0  0  0999 V2000
    9.1920    5.9280   22.7680 N   0  0  0  0  0  0  0  0  0  0  0  0
    9.4680    4.5940   23.2540 O   0  0  0  0  0  0  0  0  0  0  0  0
   10.6520    4.5250   24.0840 C   0  0  1  0  0  0  0  0  0  0  0  0
   10.7510    3.1060   24.6870 C   0  0  0  0  0  0  0  0  0  0  0  0
   10.7890    1.9600   23.6920 C   0  0  0  0  0  0  0  0  0  0  0  0
   12.0100    1.4460   23.2140 C   0  0  0  0  0  0  0  0  0  0  0  0
   12.0180    0.3410   22.3450 C   0  0  0  0  0  0  0  0  0  0  0  0
   10.8060   -0.2500   21.9480 C   0  0  0  0  0  0  0  0  0  0  0  0
    9.5910    0.2660   22.4240 C   0  0  0  0  0  0  0  0  0  0  0  0
    8.3520   -0.2380   21.9830 N   0  0  0  0  0  0  0  0  0  0  0  0
    7.8780   -0.0500   20.7170 C   0  0  0  0  0  0  0  0  0  0  0  0
    8.5750    0.2530   19.7710 O   0  0  0  0  0  0  0  0  0  0  0  0
    6.5170   -0.1370   20.6250 N   0  0  0  0  0  0  0  0  0  0  0  0
    5.7860    0.4180   19.5490 C   0  0  0  0  0  0  0  0  0  0  0  0
    4.8310    1.4070   19.8170 C   0  0  0  0  0  0  0  0  0  0  0  0
    4.2590    2.0730   18.7260 C   0  0  0  0  0  0  0  0  0  0  0  0
    4.6670    1.7450   17.4240 C   0  0  0  0  0  0  0  0  0  0  0  0
    5.5570    0.7630   17.1560 N   0  0  0  0  0  0  0  0  0  0  0  0
    6.1110    0.1270   18.2070 C   0  0  0  0  0  0  0  0  0  0  0  0
    9.5860    1.3630   23.2930 C   0  0  0  0  0  0  0  0  0  0  0  0
   11.9700    4.8950   23.3830 C   0  0  0  0  0  0  0  0  0  0  0  0
   13.0110    5.0320   24.0010 O   0  0  0  0  0  0  0  0  0  0  0  0
   11.9580    4.8980   22.0400 O   0  0  0  0  0  0  0  0  0  0  0  0
  1  2  1  0
  2  3  1  0
  3 21  1  0
  3  4  1  6
  4  5  1  0
  5 20  2  0
  5  6  1  0
  6  7  2  0
  7  8  1  0
  8  9  2  0
  9 10  1  0
  9 20  1  0
 10 11  1  0
 11 12  2  0
 11 13  1  0
 13 14  1  0
 14 15  2  0
 14 19  1  0
 15 16  1  0
 16 17  2  0
 17 18  1  0
 18 19  2  0
 21 22  2  0
 21 23  1  0
M  END
