WPC2902_minimised.pdb
     RDKit          3D

 17 18  0  0  0  0  0  0  0  0999 V2000
   13.6030   -1.1400   21.3950 Cl  0  0  0  0  0  0  0  0  0  0  0  0
   12.3280   -0.2340   22.1750 C   0  0  0  0  0  0  0  0  0  0  0  0
   10.9860   -0.5660   21.9330 C   0  0  0  0  0  0  0  0  0  0  0  0
    9.9590    0.1750   22.5390 C   0  0  0  0  0  0  0  0  0  0  0  0
   12.6470    0.8400   23.0210 C   0  0  0  0  0  0  0  0  0  0  0  0
   11.6190    1.5780   23.6290 C   0  0  0  0  0  0  0  0  0  0  0  0
    8.6050   -0.0710   22.2230 N   0  0  0  0  0  0  0  0  0  0  0  0
   10.2770    1.2380   23.3970 C   0  0  0  0  0  0  0  0  0  0  0  0
    8.0840    0.0550   20.9650 C   0  0  0  0  0  0  0  0  0  0  0  0
    8.7650    0.2070   19.9730 O   0  0  0  0  0  0  0  0  0  0  0  0
    6.7160    0.0520   20.9150 N   0  0  0  0  0  0  0  0  0  0  0  0
    5.9680    0.5010   19.7980 C   0  0  0  0  0  0  0  0  0  0  0  0
    6.2700    0.0960   18.4780 C   0  0  0  0  0  0  0  0  0  0  0  0
    4.9930    1.4860   19.9950 C   0  0  0  0  0  0  0  0  0  0  0  0
    5.6840    0.6260   17.3850 N   0  0  0  0  0  0  0  0  0  0  0  0
    4.3910    2.0440   18.8610 C   0  0  0  0  0  0  0  0  0  0  0  0
    4.7870    1.6180   17.5850 C   0  0  0  0  0  0  0  0  0  0  0  0
  1  2  1  0
  2  3  2  0
  2  5  1  0
  3  4  1  0
  4  8  2  0
  4  7  1  0
  5  6  2  0
  6  8  1  0
  7  9  1  0
  9 10  2  0
  9 11  1  0
 11 12  1  0
 12 13  2  0
 12 14  1  0
 13 15  1  0
 14 16  2  0
 15 17  2  0
 16 17  1  0
M  END
