WPC2839_minimised.pdb
     RDKit          3D

 21 22  0  0  1  0  0  0  0  0999 V2000
   14.1550   -0.9460   20.8320 O   0  0  0  0  0  0  0  0  0  0  0  0
   13.6070   -1.2810   22.0990 C   0  0  0  0  0  0  0  0  0  0  0  0
   12.1310   -0.8550   22.1790 C   0  0  0  0  0  0  0  0  0  0  0  0
   11.3990   -1.5590   23.3410 C   0  0  2  0  0  0  0  0  0  0  0  0
   11.0510   -2.8750   22.9390 O   0  0  0  0  0  0  0  0  0  0  0  0
   10.1490   -0.8190   23.7790 C   0  0  0  0  0  0  0  0  0  0  0  0
    9.0890   -0.6520   22.8760 C   0  0  0  0  0  0  0  0  0  0  0  0
    7.9300    0.0350   23.2630 C   0  0  0  0  0  0  0  0  0  0  0  0
   10.0360   -0.3020   25.0840 C   0  0  0  0  0  0  0  0  0  0  0  0
    8.8650    0.3620   25.4810 C   0  0  0  0  0  0  0  0  0  0  0  0
    6.8590    0.2100   22.3680 N   0  0  0  0  0  0  0  0  0  0  0  0
    7.8120    0.5300   24.5700 C   0  0  0  0  0  0  0  0  0  0  0  0
    6.9160    0.4720   21.0270 C   0  0  0  0  0  0  0  0  0  0  0  0
    7.9280    0.5610   20.3550 O   0  0  0  0  0  0  0  0  0  0  0  0
    5.6530    0.6270   20.5320 N   0  0  0  0  0  0  0  0  0  0  0  0
    5.2970    1.1180   19.2600 C   0  0  0  0  0  0  0  0  0  0  0  0
    5.9840    0.7560   18.0810 C   0  0  0  0  0  0  0  0  0  0  0  0
    4.2680    2.0620   19.1910 C   0  0  0  0  0  0  0  0  0  0  0  0
    5.7170    1.3030   16.8760 N   0  0  0  0  0  0  0  0  0  0  0  0
    3.9980    2.6360   17.9470 C   0  0  0  0  0  0  0  0  0  0  0  0
    4.7680    2.2690   16.8390 C   0  0  0  0  0  0  0  0  0  0  0  0
  1  2  1  0
  2  3  1  0
  3  4  1  0
  4  5  1  6
  4  6  1  0
  6  9  2  0
  6  7  1  0
  7  8  2  0
  8 11  1  0
  8 12  1  0
  9 10  1  0
 10 12  2  0
 11 13  1  0
 13 14  2  0
 13 15  1  0
 15 16  1  0
 16 17  2  0
 16 18  1  0
 17 19  1  0
 18 20  2  0
 19 21  2  0
 20 21  1  0
M  END
