WPC2383_minimised.pdb
     RDKit          3D

 24 26  0  0  0  0  0  0  0  0999 V2000
    8.6450    0.0260   19.7510 O   0  0  0  0  0  0  0  0  0  0  0  0
    7.9700   -0.2970   20.7070 C   0  0  0  0  0  0  0  0  0  0  0  0
    6.6030   -0.2590   20.6800 N   0  0  0  0  0  0  0  0  0  0  0  0
    5.8610    0.3320   19.6290 C   0  0  0  0  0  0  0  0  0  0  0  0
    4.9290    1.3350   19.9260 C   0  0  0  0  0  0  0  0  0  0  0  0
    4.3420    2.0150   18.8510 C   0  0  0  0  0  0  0  0  0  0  0  0
    4.7110    1.6890   17.5380 C   0  0  0  0  0  0  0  0  0  0  0  0
    5.5710    0.6890   17.2420 N   0  0  0  0  0  0  0  0  0  0  0  0
    6.1400    0.0390   18.2760 C   0  0  0  0  0  0  0  0  0  0  0  0
    8.5010   -0.6740   21.9060 N   0  0  0  0  0  0  0  0  0  0  0  0
    9.8670   -0.5390   22.2090 C   0  0  0  0  0  0  0  0  0  0  0  0
   10.8070   -1.4390   21.6890 C   0  0  0  0  0  0  0  0  0  0  0  0
   12.1810   -1.2140   21.8750 C   0  0  0  0  0  0  0  0  0  0  0  0
   12.6120   -0.0840   22.5890 C   0  0  0  0  0  0  0  0  0  0  0  0
   11.6640    0.7970   23.1290 C   0  0  0  0  0  0  0  0  0  0  0  0
   12.1620    2.2220   24.0430 S   0  0  0  0  0  0  0  0  0  0  0  0
   12.7470    3.3630   22.7330 C   0  0  0  0  0  0  0  0  0  0  0  0
   12.3120    4.6700   23.2180 N   0  0  0  0  0  0  0  0  0  0  0  0
   12.8210    5.4830   24.2190 C   0  0  0  0  0  0  0  0  0  0  0  0
   11.7980    6.3470   24.4950 C   0  0  0  0  0  0  0  0  0  0  0  0
   10.6400    6.1200   23.6600 C   0  0  0  0  0  0  0  0  0  0  0  0
    9.6370    6.7870   23.5570 O   0  0  0  0  0  0  0  0  0  0  0  0
   10.9710    5.0300   22.9250 N   0  0  0  0  0  0  0  0  0  0  0  0
   10.2970    0.5750   22.9370 C   0  0  0  0  0  0  0  0  0  0  0  0
  1  2  2  0
  2 10  1  0
  2  3  1  0
  3  4  1  0
  4  5  2  0
  4  9  1  0
  5  6  1  0
  6  7  2  0
  7  8  1  0
  8  9  2  0
 10 11  1  0
 11 12  2  0
 11 24  1  0
 12 13  1  0
 13 14  2  0
 14 15  1  0
 15 16  1  0
 15 24  2  0
 16 17  1  0
 17 18  1  0
 18 19  1  0
 18 23  1  0
 19 20  2  0
 20 21  1  0
 21 22  2  0
 21 23  1  0
M  END
