WPC2334_minimised.pdb
     RDKit          3D

 23 24  0  0  0  0  0  0  0  0999 V2000
    8.8580    5.5230   22.4700 C   0  0  0  0  0  0  0  0  0  0  0  0
   10.1640    5.6790   23.2230 C   0  0  0  0  0  0  0  0  0  0  0  0
   10.2160    6.0850   24.3630 O   0  0  0  0  0  0  0  0  0  0  0  0
   11.2880    5.3240   22.5290 N   0  0  0  0  0  0  0  0  0  0  0  0
   12.5870    5.0470   23.1490 C   0  0  0  0  0  0  0  0  0  0  0  0
   12.8330    3.5370   23.0810 C   0  0  0  0  0  0  0  0  0  0  0  0
   11.6470    2.6460   24.1680 S   0  0  0  0  0  0  0  0  0  0  0  0
   11.3790    1.1270   23.2990 C   0  0  0  0  0  0  0  0  0  0  0  0
   12.4450    0.3410   22.8320 C   0  0  0  0  0  0  0  0  0  0  0  0
   12.1790   -0.8270   22.0960 C   0  0  0  0  0  0  0  0  0  0  0  0
   10.8500   -1.1940   21.8240 C   0  0  0  0  0  0  0  0  0  0  0  0
    9.7930   -0.3980   22.2870 C   0  0  0  0  0  0  0  0  0  0  0  0
    8.4650   -0.6600   21.9070 N   0  0  0  0  0  0  0  0  0  0  0  0
    7.9600   -0.2760   20.6990 C   0  0  0  0  0  0  0  0  0  0  0  0
    8.6490    0.0970   19.7700 O   0  0  0  0  0  0  0  0  0  0  0  0
    6.5950   -0.2770   20.6350 N   0  0  0  0  0  0  0  0  0  0  0  0
    5.8670    0.3330   19.5860 C   0  0  0  0  0  0  0  0  0  0  0  0
    4.9340    1.3340   19.8870 C   0  0  0  0  0  0  0  0  0  0  0  0
    4.3660    2.0360   18.8150 C   0  0  0  0  0  0  0  0  0  0  0  0
    4.7540    1.7320   17.5020 C   0  0  0  0  0  0  0  0  0  0  0  0
    5.6210    0.7390   17.2030 N   0  0  0  0  0  0  0  0  0  0  0  0
    6.1700    0.0660   18.2340 C   0  0  0  0  0  0  0  0  0  0  0  0
   10.0590    0.7540   23.0330 C   0  0  0  0  0  0  0  0  0  0  0  0
  1  2  1  0
  2  3  2  0
  2  4  1  0
  4  5  1  0
  5  6  1  0
  6  7  1  0
  7  8  1  0
  8 23  2  0
  8  9  1  0
  9 10  2  0
 10 11  1  0
 11 12  2  0
 12 13  1  0
 12 23  1  0
 13 14  1  0
 14 15  2  0
 14 16  1  0
 16 17  1  0
 17 18  2  0
 17 22  1  0
 18 19  1  0
 19 20  2  0
 20 21  1  0
 21 22  2  0
M  END
