WPC2867_minimised.pdb
     RDKit          3D

 19 20  0  0  0  0  0  0  0  0999 V2000
   14.3700   -1.1410   20.2230 N   0  0  0  0  0  0  0  0  0  0  0  0
   13.3610   -0.3710   20.9540 C   0  0  0  0  0  0  0  0  0  0  0  0
   13.0860   -0.9190   22.3520 C   0  0  0  0  0  0  0  0  0  0  0  0
   11.8750   -0.2220   22.9470 C   0  0  0  0  0  0  0  0  0  0  0  0
   10.5990   -0.4920   22.4240 C   0  0  0  0  0  0  0  0  0  0  0  0
    9.4760    0.1860   22.9180 C   0  0  0  0  0  0  0  0  0  0  0  0
   12.0170    0.7380   23.9640 C   0  0  0  0  0  0  0  0  0  0  0  0
   10.8860    1.4040   24.4670 C   0  0  0  0  0  0  0  0  0  0  0  0
    8.2070   -0.0110   22.3450 N   0  0  0  0  0  0  0  0  0  0  0  0
    9.6150    1.1210   23.9490 C   0  0  0  0  0  0  0  0  0  0  0  0
    7.8930    0.2320   21.0370 C   0  0  0  0  0  0  0  0  0  0  0  0
    8.6990    0.4940   20.1660 O   0  0  0  0  0  0  0  0  0  0  0  0
    6.5430    0.1900   20.8200 N   0  0  0  0  0  0  0  0  0  0  0  0
    5.8880    0.6640   19.6610 C   0  0  0  0  0  0  0  0  0  0  0  0
    6.3060    0.3120   18.3590 C   0  0  0  0  0  0  0  0  0  0  0  0
    4.8510    1.5910   19.8160 C   0  0  0  0  0  0  0  0  0  0  0  0
    5.7450    0.8180   17.2400 N   0  0  0  0  0  0  0  0  0  0  0  0
    4.2950    2.1440   18.6580 C   0  0  0  0  0  0  0  0  0  0  0  0
    4.7840    1.7560   17.4040 C   0  0  0  0  0  0  0  0  0  0  0  0
  1  2  1  0
  2  3  1  0
  3  4  1  0
  4  7  2  0
  4  5  1  0
  5  6  2  0
  6  9  1  0
  6 10  1  0
  7  8  1  0
  8 10  2  0
  9 11  1  0
 11 12  2  0
 11 13  1  0
 13 14  1  0
 14 15  2  0
 14 16  1  0
 15 17  1  0
 16 18  2  0
 17 19  2  0
 18 19  1  0
M  END
