WPC2769_minimised.pdb
     RDKit          3D

 21 22  0  0  0  0  0  0  0  0999 V2000
   14.0220   -0.9660   20.8370 C   0  0  0  0  0  0  0  0  0  0  0  0
   12.9560   -0.1190   21.5560 C   0  0  0  0  0  0  0  0  0  0  0  0
   12.4630   -0.7010   22.9090 C   0  0  0  0  0  0  0  0  0  0  0  0
   13.6020   -0.5920   23.9620 C   0  0  0  0  0  0  0  0  0  0  0  0
   12.1090   -2.2020   22.7720 C   0  0  0  0  0  0  0  0  0  0  0  0
   11.1950    0.0670   23.3220 C   0  0  0  0  0  0  0  0  0  0  0  0
    9.9870   -0.1690   22.6360 C   0  0  0  0  0  0  0  0  0  0  0  0
    8.8050    0.4750   23.0190 C   0  0  0  0  0  0  0  0  0  0  0  0
   11.1910    1.0160   24.3630 C   0  0  0  0  0  0  0  0  0  0  0  0
   10.0040    1.6480   24.7620 C   0  0  0  0  0  0  0  0  0  0  0  0
    7.6090    0.2570   22.3150 N   0  0  0  0  0  0  0  0  0  0  0  0
    8.8050    1.3660   24.0960 C   0  0  0  0  0  0  0  0  0  0  0  0
    7.4450    0.3850   20.9650 C   0  0  0  0  0  0  0  0  0  0  0  0
    8.3410    0.5170   20.1520 O   0  0  0  0  0  0  0  0  0  0  0  0
    6.1200    0.3920   20.6400 N   0  0  0  0  0  0  0  0  0  0  0  0
    5.5730    0.8810   19.4370 C   0  0  0  0  0  0  0  0  0  0  0  0
    6.0810    0.5210   18.1710 C   0  0  0  0  0  0  0  0  0  0  0  0
    4.5550    1.8360   19.5210 C   0  0  0  0  0  0  0  0  0  0  0  0
    5.6340    1.0600   17.0170 N   0  0  0  0  0  0  0  0  0  0  0  0
    4.1070    2.4120   18.3290 C   0  0  0  0  0  0  0  0  0  0  0  0
    4.6890    2.0250   17.1150 C   0  0  0  0  0  0  0  0  0  0  0  0
  1  2  1  0
  2  3  1  0
  3  4  1  0
  3  5  1  0
  3  6  1  0
  6  9  2  0
  6  7  1  0
  7  8  2  0
  8 11  1  0
  8 12  1  0
  9 10  1  0
 10 12  2  0
 11 13  1  0
 13 14  2  0
 13 15  1  0
 15 16  1  0
 16 17  2  0
 16 18  1  0
 17 19  1  0
 18 20  2  0
 19 21  2  0
 20 21  1  0
M  END
