WPC2292_minimised.pdb
     RDKit          3D

 22 24  0  0  0  0  0  0  0  0999 V2000
    8.5960    0.1340   19.7630 O   0  0  0  0  0  0  0  0  0  0  0  0
    7.9450   -0.0910   20.7630 C   0  0  0  0  0  0  0  0  0  0  0  0
    6.5790   -0.0230   20.7690 N   0  0  0  0  0  0  0  0  0  0  0  0
    5.8180    0.4960   19.6930 C   0  0  0  0  0  0  0  0  0  0  0  0
    4.8720    1.4970   19.9460 C   0  0  0  0  0  0  0  0  0  0  0  0
    4.2690    2.1150   18.8430 C   0  0  0  0  0  0  0  0  0  0  0  0
    4.6380    1.7310   17.5450 C   0  0  0  0  0  0  0  0  0  0  0  0
    5.5050    0.7260   17.2920 N   0  0  0  0  0  0  0  0  0  0  0  0
    6.0880    0.1340   18.3540 C   0  0  0  0  0  0  0  0  0  0  0  0
    8.5110   -0.3910   21.9690 N   0  0  0  0  0  0  0  0  0  0  0  0
    9.9020   -0.3750   22.1790 C   0  0  0  0  0  0  0  0  0  0  0  0
   10.6930   -1.4310   21.7040 C   0  0  0  0  0  0  0  0  0  0  0  0
   12.0920   -1.3500   21.7790 C   0  0  0  0  0  0  0  0  0  0  0  0
   12.6950   -0.2150   22.3370 C   0  0  0  0  0  0  0  0  0  0  0  0
   11.9020    0.8250   22.8380 C   0  0  0  0  0  0  0  0  0  0  0  0
   12.7190    2.2120   23.5730 S   0  0  0  0  0  0  0  0  0  0  0  0
   11.8990    3.7220   22.9140 C   0  0  0  0  0  0  0  0  0  0  0  0
   12.8860    4.9080   22.9320 C   0  0  0  0  0  0  0  0  0  0  0  0
   12.4580    5.7930   24.1120 C   0  0  0  0  0  0  0  0  0  0  0  0
   10.9420    5.5900   24.2220 C   0  0  0  0  0  0  0  0  0  0  0  0
   10.6870    4.1390   23.7780 C   0  0  0  0  0  0  0  0  0  0  0  0
   10.5040    0.7500   22.7570 C   0  0  0  0  0  0  0  0  0  0  0  0
  1  2  2  0
  2  3  1  0
  2 10  1  0
  3  4  1  0
  4  5  2  0
  4  9  1  0
  5  6  1  0
  6  7  2  0
  7  8  1  0
  8  9  2  0
 10 11  1  0
 11 22  1  0
 11 12  2  0
 12 13  1  0
 13 14  2  0
 14 15  1  0
 15 16  1  0
 15 22  2  0
 16 17  1  0
 17 18  1  0
 17 21  1  0
 18 19  1  0
 19 20  1  0
 20 21  1  0
M  END
