WPC2067_minimised.pdb
     RDKit          3D

 24 26  0  0  0  0  0  0  0  0999 V2000
   12.5880    7.2760   25.7180 N   0  0  0  0  0  0  0  0  0  0  0  0
   12.0890    6.2820   24.9460 C   0  0  0  0  0  0  0  0  0  0  0  0
   10.9470    5.7340   25.2680 N   0  0  0  0  0  0  0  0  0  0  0  0
   10.6390    4.6710   24.4660 N   0  0  0  0  0  0  0  0  0  0  0  0
   11.5850    4.4670   23.5720 C   0  0  0  0  0  0  0  0  0  0  0  0
   11.6220    3.2480   22.7310 C   0  0  0  0  0  0  0  0  0  0  0  0
   12.4570    1.8930   23.6520 S   0  0  0  0  0  0  0  0  0  0  0  0
   11.7570    0.4620   22.9000 C   0  0  0  0  0  0  0  0  0  0  0  0
   12.5970   -0.4780   22.2940 C   0  0  0  0  0  0  0  0  0  0  0  0
   12.0390   -1.5970   21.6650 C   0  0  0  0  0  0  0  0  0  0  0  0
   10.6440   -1.7500   21.6130 C   0  0  0  0  0  0  0  0  0  0  0  0
    9.8080   -0.7850   22.1890 C   0  0  0  0  0  0  0  0  0  0  0  0
    8.4250   -0.8000   21.9310 N   0  0  0  0  0  0  0  0  0  0  0  0
    7.9040   -0.3220   20.7610 C   0  0  0  0  0  0  0  0  0  0  0  0
    8.5910    0.0420   19.8270 O   0  0  0  0  0  0  0  0  0  0  0  0
    6.5380   -0.2490   20.7280 N   0  0  0  0  0  0  0  0  0  0  0  0
    5.8130    0.3570   19.6730 C   0  0  0  0  0  0  0  0  0  0  0  0
    4.8770    1.3580   19.9620 C   0  0  0  0  0  0  0  0  0  0  0  0
    4.3030    2.0420   18.8820 C   0  0  0  0  0  0  0  0  0  0  0  0
    4.6850    1.7180   17.5710 C   0  0  0  0  0  0  0  0  0  0  0  0
    5.5490    0.7200   17.2820 N   0  0  0  0  0  0  0  0  0  0  0  0
    6.1080    0.0700   18.3210 C   0  0  0  0  0  0  0  0  0  0  0  0
   10.3650    0.3070   22.8610 C   0  0  0  0  0  0  0  0  0  0  0  0
   12.9270    5.5710   23.6090 S   0  0  0  0  0  0  0  0  0  0  0  0
  1  2  1  0
  2 24  1  0
  2  3  2  0
  3  4  1  0
  4  5  2  0
  5  6  1  0
  5 24  1  0
  6  7  1  0
  7  8  1  0
  8 23  1  0
  8  9  2  0
  9 10  1  0
 10 11  2  0
 11 12  1  0
 12 13  1  0
 12 23  2  0
 13 14  1  0
 14 15  2  0
 14 16  1  0
 16 17  1  0
 17 18  2  0
 17 22  1  0
 18 19  1  0
 19 20  2  0
 20 21  1  0
 21 22  2  0
M  END
