WPC2889_minimised.pdb
     RDKit          3D

 20 21  0  0  1  0  0  0  0  0999 V2000
   14.4980   -0.6520   20.1400 O   0  0  0  0  0  0  0  0  0  0  0  0
   13.1840   -0.8020   20.6800 C   0  0  0  0  0  0  0  0  0  0  0  0
   13.1900   -0.8720   22.2180 C   0  0  2  0  0  0  0  0  0  0  0  0
   13.3350   -2.2260   22.6190 O   0  0  0  0  0  0  0  0  0  0  0  0
   11.9170   -0.3000   22.8260 C   0  0  0  0  0  0  0  0  0  0  0  0
   10.6530   -0.6300   22.3000 C   0  0  0  0  0  0  0  0  0  0  0  0
    9.4910   -0.0530   22.8350 C   0  0  0  0  0  0  0  0  0  0  0  0
   11.9960    0.6100   23.8980 C   0  0  0  0  0  0  0  0  0  0  0  0
   10.8290    1.1640   24.4470 C   0  0  0  0  0  0  0  0  0  0  0  0
    8.2310   -0.2800   22.2530 N   0  0  0  0  0  0  0  0  0  0  0  0
    9.5770    0.8280   23.9190 C   0  0  0  0  0  0  0  0  0  0  0  0
    7.9110    0.0060   20.9560 C   0  0  0  0  0  0  0  0  0  0  0  0
    8.7160    0.2710   20.0840 O   0  0  0  0  0  0  0  0  0  0  0  0
    6.5590    0.0160   20.7550 N   0  0  0  0  0  0  0  0  0  0  0  0
    5.9070    0.5530   19.6230 C   0  0  0  0  0  0  0  0  0  0  0  0
    6.2930    0.2240   18.3070 C   0  0  0  0  0  0  0  0  0  0  0  0
    4.9070    1.5130   19.8190 C   0  0  0  0  0  0  0  0  0  0  0  0
    5.7400    0.7860   17.2120 N   0  0  0  0  0  0  0  0  0  0  0  0
    4.3500    2.1150   18.6840 C   0  0  0  0  0  0  0  0  0  0  0  0
    4.8090    1.7460   17.4120 C   0  0  0  0  0  0  0  0  0  0  0  0
  1  2  1  0
  2  3  1  0
  3  4  1  6
  3  5  1  0
  5  8  2  0
  5  6  1  0
  6  7  2  0
  7 10  1  0
  7 11  1  0
  8  9  1  0
  9 11  2  0
 10 12  1  0
 12 13  2  0
 12 14  1  0
 14 15  1  0
 15 16  2  0
 15 17  1  0
 16 18  1  0
 17 19  2  0
 18 20  2  0
 19 20  1  0
M  END
