WPC2221_minimised.pdb
     RDKit          3D

 24 26  0  0  0  0  0  0  0  0999 V2000
   11.7300    5.9410   24.4610 C   0  0  0  0  0  0  0  0  0  0  0  0
   12.1480    4.5780   24.0910 N   0  0  0  0  0  0  0  0  0  0  0  0
   11.0490    3.5940   24.2080 C   0  0  0  0  0  0  0  0  0  0  0  0
   11.5130    2.2040   23.8280 C   0  0  0  0  0  0  0  0  0  0  0  0
   12.5450    1.9650   23.0090 C   0  0  0  0  0  0  0  0  0  0  0  0
   13.0310    0.3540   22.5250 S   0  0  0  0  0  0  0  0  0  0  0  0
   11.5970   -0.7130   22.6450 C   0  0  0  0  0  0  0  0  0  0  0  0
   11.7410   -2.0390   23.0850 C   0  0  0  0  0  0  0  0  0  0  0  0
   10.6190   -2.8680   23.2420 C   0  0  0  0  0  0  0  0  0  0  0  0
    9.3430   -2.3830   22.9200 C   0  0  0  0  0  0  0  0  0  0  0  0
    9.1970   -1.0800   22.4210 C   0  0  0  0  0  0  0  0  0  0  0  0
    7.9160   -0.6230   22.0470 N   0  0  0  0  0  0  0  0  0  0  0  0
    7.6120    0.0150   20.8780 C   0  0  0  0  0  0  0  0  0  0  0  0
    8.4290    0.3370   20.0390 O   0  0  0  0  0  0  0  0  0  0  0  0
    6.2740    0.2340   20.7230 N   0  0  0  0  0  0  0  0  0  0  0  0
    5.6650    0.8080   19.5820 C   0  0  0  0  0  0  0  0  0  0  0  0
    4.6760    1.7850   19.7450 C   0  0  0  0  0  0  0  0  0  0  0  0
    4.1730    2.3940   18.5890 C   0  0  0  0  0  0  0  0  0  0  0  0
    4.6700    2.0200   17.3320 C   0  0  0  0  0  0  0  0  0  0  0  0
    5.5830    1.0370   17.1630 N   0  0  0  0  0  0  0  0  0  0  0  0
    6.0790    0.4630   18.2760 C   0  0  0  0  0  0  0  0  0  0  0  0
   10.3230   -0.2510   22.2800 C   0  0  0  0  0  0  0  0  0  0  0  0
   13.3800    3.1140   22.4760 C   0  0  0  0  0  0  0  0  0  0  0  0
   12.7800    4.5120   22.7550 C   0  0  0  0  0  0  0  0  0  0  0  0
  1  2  1  0
  2  3  1  0
  2 24  1  0
  3  4  1  0
  4  5  2  0
  5 23  1  0
  5  6  1  0
  6  7  1  0
  7 22  1  0
  7  8  2  0
  8  9  1  0
  9 10  2  0
 10 11  1  0
 11 12  1  0
 11 22  2  0
 12 13  1  0
 13 14  2  0
 13 15  1  0
 15 16  1  0
 16 17  2  0
 16 21  1  0
 17 18  1  0
 18 19  2  0
 19 20  1  0
 20 21  2  0
 23 24  1  0
M  END
