WPC2393_minimised.pdb
     RDKit          3D

 22 23  0  0  0  0  0  0  0  0999 V2000
   13.6560    5.3400   22.1710 C   0  0  0  0  0  0  0  0  0  0  0  0
   12.6730    5.0430   23.2880 C   0  0  0  0  0  0  0  0  0  0  0  0
   12.9370    5.2530   24.4550 O   0  0  0  0  0  0  0  0  0  0  0  0
   11.4670    4.5080   22.9040 N   0  0  0  0  0  0  0  0  0  0  0  0
   10.4090    4.1460   23.8500 C   0  0  0  0  0  0  0  0  0  0  0  0
   10.7060    2.8040   24.5490 C   0  0  0  0  0  0  0  0  0  0  0  0
   10.7200    1.6050   23.6210 C   0  0  0  0  0  0  0  0  0  0  0  0
   11.9290    1.0390   23.1750 C   0  0  0  0  0  0  0  0  0  0  0  0
   11.9150   -0.0770   22.3210 C   0  0  0  0  0  0  0  0  0  0  0  0
   10.6890   -0.6270   21.9080 C   0  0  0  0  0  0  0  0  0  0  0  0
    9.4860   -0.0620   22.3590 C   0  0  0  0  0  0  0  0  0  0  0  0
    8.2390   -0.5050   21.8850 N   0  0  0  0  0  0  0  0  0  0  0  0
    7.8120   -0.2580   20.6140 C   0  0  0  0  0  0  0  0  0  0  0  0
    8.5500    0.0150   19.6890 O   0  0  0  0  0  0  0  0  0  0  0  0
    6.4500   -0.2490   20.5010 N   0  0  0  0  0  0  0  0  0  0  0  0
    5.7650    0.3830   19.4380 C   0  0  0  0  0  0  0  0  0  0  0  0
    4.8240    1.3770   19.7310 C   0  0  0  0  0  0  0  0  0  0  0  0
    4.2930    2.1070   18.6590 C   0  0  0  0  0  0  0  0  0  0  0  0
    4.7320    1.8400   17.3550 C   0  0  0  0  0  0  0  0  0  0  0  0
    5.6100    0.8540   17.0620 N   0  0  0  0  0  0  0  0  0  0  0  0
    6.1190    0.1510   18.0930 C   0  0  0  0  0  0  0  0  0  0  0  0
    9.5030    1.0430   23.2150 C   0  0  0  0  0  0  0  0  0  0  0  0
  1  2  1  0
  2  3  2  0
  2  4  1  0
  4  5  1  0
  5  6  1  0
  6  7  1  0
  7 22  2  0
  7  8  1  0
  8  9  2  0
  9 10  1  0
 10 11  2  0
 11 12  1  0
 11 22  1  0
 12 13  1  0
 13 14  2  0
 13 15  1  0
 15 16  1  0
 16 17  2  0
 16 21  1  0
 17 18  1  0
 18 19  2  0
 19 20  1  0
 20 21  2  0
M  END
