WPC2649_minimised.pdb
     RDKit          3D

 24 25  0  0  0  0  0  0  0  0999 V2000
    8.8220    4.3090   22.8090 C   0  0  0  0  0  0  0  0  0  0  0  0
    9.6400    5.5890   22.9490 C   0  0  0  0  0  0  0  0  0  0  0  0
    9.1340    6.6810   22.8620 O   0  0  0  0  0  0  0  0  0  0  0  0
   10.9490    5.5670   23.3250 N   0  0  0  0  0  0  0  0  0  0  0  0
   11.8780    4.6100   23.5280 C   0  0  0  0  0  0  0  0  0  0  0  0
   12.8540    4.8780   24.1890 O   0  0  0  0  0  0  0  0  0  0  0  0
   11.6460    3.3750   23.0020 N   0  0  0  0  0  0  0  0  0  0  0  0
   12.4230    2.1990   23.3970 C   0  0  0  0  0  0  0  0  0  0  0  0
   11.9030    0.9020   22.8150 C   0  0  0  0  0  0  0  0  0  0  0  0
   12.8010   -0.0780   22.3590 C   0  0  0  0  0  0  0  0  0  0  0  0
   12.3170   -1.2950   21.8570 C   0  0  0  0  0  0  0  0  0  0  0  0
   10.9330   -1.5250   21.7860 C   0  0  0  0  0  0  0  0  0  0  0  0
   10.0370   -0.5400   22.2200 C   0  0  0  0  0  0  0  0  0  0  0  0
    8.6550   -0.6710   21.9780 N   0  0  0  0  0  0  0  0  0  0  0  0
    8.0770   -0.2180   20.8260 C   0  0  0  0  0  0  0  0  0  0  0  0
    8.7220    0.2260   19.8980 O   0  0  0  0  0  0  0  0  0  0  0  0
    6.7100   -0.2540   20.7960 N   0  0  0  0  0  0  0  0  0  0  0  0
    5.9500    0.3200   19.7460 C   0  0  0  0  0  0  0  0  0  0  0  0
    5.0070    1.3140   20.0360 C   0  0  0  0  0  0  0  0  0  0  0  0
    4.4210    1.9890   18.9560 C   0  0  0  0  0  0  0  0  0  0  0  0
    4.8020    1.6680   17.6440 C   0  0  0  0  0  0  0  0  0  0  0  0
    5.6710    0.6730   17.3550 N   0  0  0  0  0  0  0  0  0  0  0  0
    6.2400    0.0300   18.3940 C   0  0  0  0  0  0  0  0  0  0  0  0
   10.5200    0.6590   22.7540 C   0  0  0  0  0  0  0  0  0  0  0  0
  1  2  1  0
  2  3  2  0
  2  4  1  0
  4  5  1  0
  5  6  2  0
  5  7  1  0
  7  8  1  0
  8  9  1  0
  9 24  2  0
  9 10  1  0
 10 11  2  0
 11 12  1  0
 12 13  2  0
 13 14  1  0
 13 24  1  0
 14 15  1  0
 15 16  2  0
 15 17  1  0
 17 18  1  0
 18 19  2  0
 18 23  1  0
 19 20  1  0
 20 21  2  0
 21 22  1  0
 22 23  2  0
M  END
