WPC2744_minimised.pdb
     RDKit          3D

 19 20  0  0  0  0  0  0  0  0999 V2000
   14.0880   -1.6000   20.5820 N   0  0  0  0  0  0  0  0  0  0  0  0
   13.1410   -1.3500   21.3860 C   0  0  0  0  0  0  0  0  0  0  0  0
   13.0690   -0.1280   21.9770 N   0  0  0  0  0  0  0  0  0  0  0  0
   11.9880    0.4990   22.5590 C   0  0  0  0  0  0  0  0  0  0  0  0
   10.6860    0.0470   22.3110 C   0  0  0  0  0  0  0  0  0  0  0  0
    9.5870    0.7450   22.8260 C   0  0  0  0  0  0  0  0  0  0  0  0
   12.1910    1.6430   23.3390 C   0  0  0  0  0  0  0  0  0  0  0  0
   11.0930    2.3250   23.8890 C   0  0  0  0  0  0  0  0  0  0  0  0
    8.2800    0.3980   22.4320 N   0  0  0  0  0  0  0  0  0  0  0  0
    9.7900    1.8710   23.6340 C   0  0  0  0  0  0  0  0  0  0  0  0
    7.8680    0.3670   21.1280 C   0  0  0  0  0  0  0  0  0  0  0  0
    8.6210    0.4340   20.1770 O   0  0  0  0  0  0  0  0  0  0  0  0
    6.5080    0.3120   20.9840 N   0  0  0  0  0  0  0  0  0  0  0  0
    5.8250    0.6900   19.8020 C   0  0  0  0  0  0  0  0  0  0  0  0
    6.2160    0.2400   18.5200 C   0  0  0  0  0  0  0  0  0  0  0  0
    4.8210    1.6600   19.9030 C   0  0  0  0  0  0  0  0  0  0  0  0
    5.6870    0.7170   17.3730 N   0  0  0  0  0  0  0  0  0  0  0  0
    4.2830    2.1650   18.7150 C   0  0  0  0  0  0  0  0  0  0  0  0
    4.7660    1.7010   17.4840 C   0  0  0  0  0  0  0  0  0  0  0  0
  1  2  2  0
  2  3  1  0
  3  4  1  0
  4  7  2  0
  4  5  1  0
  5  6  2  0
  6  9  1  0
  6 10  1  0
  7  8  1  0
  8 10  2  0
  9 11  1  0
 11 12  2  0
 11 13  1  0
 13 14  1  0
 14 15  2  0
 14 16  1  0
 15 17  1  0
 16 18  2  0
 17 19  2  0
 18 19  1  0
M  END
