WPC2344_minimised.pdb
     RDKit          3D

 24 26  0  0  1  0  0  0  0  0999 V2000
    8.7920    0.4160   20.0950 O   0  0  0  0  0  0  0  0  0  0  0  0
    8.1310   -0.1020   20.9740 C   0  0  0  0  0  0  0  0  0  0  0  0
    6.7730   -0.2240   20.8790 N   0  0  0  0  0  0  0  0  0  0  0  0
    6.0090    0.2720   19.7960 C   0  0  0  0  0  0  0  0  0  0  0  0
    4.9940    1.2040   20.0370 C   0  0  0  0  0  0  0  0  0  0  0  0
    4.3440    1.7580   18.9270 C   0  0  0  0  0  0  0  0  0  0  0  0
    4.7290    1.3720   17.6350 C   0  0  0  0  0  0  0  0  0  0  0  0
    5.6820    0.4450   17.3920 N   0  0  0  0  0  0  0  0  0  0  0  0
    6.3240   -0.0690   18.4620 C   0  0  0  0  0  0  0  0  0  0  0  0
    8.6590   -0.6020   22.1330 N   0  0  0  0  0  0  0  0  0  0  0  0
   10.0130   -0.4550   22.4900 C   0  0  0  0  0  0  0  0  0  0  0  0
   11.0180   -1.0420   21.7110 C   0  0  0  0  0  0  0  0  0  0  0  0
   12.3660   -0.7230   21.9320 C   0  0  0  0  0  0  0  0  0  0  0  0
   12.7030    0.2010   22.9320 C   0  0  0  0  0  0  0  0  0  0  0  0
   11.6970    0.7610   23.7420 C   0  0  0  0  0  0  0  0  0  0  0  0
   12.0590    1.7260   24.8490 C   0  0  0  0  0  0  0  0  0  0  0  0
   11.8780    3.1830   24.5950 N   0  0  0  0  0  0  0  0  0  0  0  0
   12.8390    3.8770   23.7130 C   0  0  0  0  0  0  0  0  0  0  0  0
   12.5200    3.6900   22.2260 C   0  0  0  0  0  0  0  0  0  0  0  0
   11.0360    3.3800   21.9270 C   0  0  0  0  0  0  0  0  0  0  0  0
   10.0660    3.9730   22.9810 C   0  0  1  0  0  0  0  0  0  0  0  0
    8.3050    3.5030   22.6690 S   0  0  0  0  0  0  0  0  0  0  0  0
   10.4800    3.6360   24.4400 C   0  0  0  0  0  0  0  0  0  0  0  0
   10.3550    0.4020   23.5390 C   0  0  0  0  0  0  0  0  0  0  0  0
  1  2  2  0
  2 10  1  0
  2  3  1  0
  3  4  1  0
  4  5  2  0
  4  9  1  0
  5  6  1  0
  6  7  2  0
  7  8  1  0
  8  9  2  0
 10 11  1  0
 11 12  2  0
 11 24  1  0
 12 13  1  0
 13 14  2  0
 14 15  1  0
 15 16  1  0
 15 24  2  0
 16 17  1  0
 17 18  1  0
 17 23  1  0
 18 19  1  0
 19 20  1  0
 20 21  1  0
 21 22  1  6
 21 23  1  0
M  END
