WPC2805_minimised.pdb
     RDKit          3D

 20 21  0  0  0  0  0  0  0  0999 V2000
   14.6000   -0.4910   20.5050 O   0  0  0  0  0  0  0  0  0  0  0  0
   13.7290   -1.4050   21.1540 C   0  0  0  0  0  0  0  0  0  0  0  0
   12.6560   -0.6790   21.9770 C   0  0  0  0  0  0  0  0  0  0  0  0
   11.7100   -1.6890   22.6600 C   0  0  0  0  0  0  0  0  0  0  0  0
   10.5290   -0.9930   23.3080 C   0  0  0  0  0  0  0  0  0  0  0  0
    9.3970   -0.7270   22.5270 C   0  0  0  0  0  0  0  0  0  0  0  0
    8.2890   -0.0730   23.0840 C   0  0  0  0  0  0  0  0  0  0  0  0
   10.5480   -0.5990   24.6570 C   0  0  0  0  0  0  0  0  0  0  0  0
    9.4340    0.0400   25.2230 C   0  0  0  0  0  0  0  0  0  0  0  0
    7.1420    0.1930   22.3110 N   0  0  0  0  0  0  0  0  0  0  0  0
    8.3020    0.3000   24.4360 C   0  0  0  0  0  0  0  0  0  0  0  0
    7.0830    0.5200   20.9840 C   0  0  0  0  0  0  0  0  0  0  0  0
    8.0340    0.6310   20.2310 O   0  0  0  0  0  0  0  0  0  0  0  0
    5.7860    0.6910   20.5930 N   0  0  0  0  0  0  0  0  0  0  0  0
    5.3350    1.1630   19.3430 C   0  0  0  0  0  0  0  0  0  0  0  0
    5.9330    0.7730   18.1230 C   0  0  0  0  0  0  0  0  0  0  0  0
    4.3040    2.1060   19.3280 C   0  0  0  0  0  0  0  0  0  0  0  0
    5.5720    1.2840   16.9280 N   0  0  0  0  0  0  0  0  0  0  0  0
    3.9410    2.6490   18.0920 C   0  0  0  0  0  0  0  0  0  0  0  0
    4.6210    2.2480   16.9360 C   0  0  0  0  0  0  0  0  0  0  0  0
  1  2  1  0
  2  3  1  0
  3  4  1  0
  4  5  1  0
  5  8  2  0
  5  6  1  0
  6  7  2  0
  7 10  1  0
  7 11  1  0
  8  9  1  0
  9 11  2  0
 10 12  1  0
 12 13  2  0
 12 14  1  0
 14 15  1  0
 15 16  2  0
 15 17  1  0
 16 18  1  0
 17 19  2  0
 18 20  2  0
 19 20  1  0
M  END
