WPC2008_minimised.pdb
     RDKit          3D

 24 26  0  0  0  0  0  0  0  0999 V2000
    8.5190   -0.3820   19.5500 O   0  0  0  0  0  0  0  0  0  0  0  0
    7.9190   -0.3400   20.6050 C   0  0  0  0  0  0  0  0  0  0  0  0
    6.5720   -0.1130   20.6660 N   0  0  0  0  0  0  0  0  0  0  0  0
    5.8080    0.4330   19.6070 C   0  0  0  0  0  0  0  0  0  0  0  0
    4.9180    1.4760   19.8900 C   0  0  0  0  0  0  0  0  0  0  0  0
    4.2830    2.1050   18.8120 C   0  0  0  0  0  0  0  0  0  0  0  0
    4.5720    1.6920   17.5020 C   0  0  0  0  0  0  0  0  0  0  0  0
    5.3860    0.6510   17.2220 N   0  0  0  0  0  0  0  0  0  0  0  0
    5.9980    0.0470   18.2610 C   0  0  0  0  0  0  0  0  0  0  0  0
    8.5100   -0.4530   21.8310 N   0  0  0  0  0  0  0  0  0  0  0  0
    9.8960   -0.3160   22.0520 C   0  0  0  0  0  0  0  0  0  0  0  0
   10.8140   -1.2090   21.4890 C   0  0  0  0  0  0  0  0  0  0  0  0
   12.1920   -0.9840   21.6310 C   0  0  0  0  0  0  0  0  0  0  0  0
   12.6460    0.1230   22.3660 C   0  0  0  0  0  0  0  0  0  0  0  0
   11.7270    1.0000   22.9710 C   0  0  0  0  0  0  0  0  0  0  0  0
   12.2310    2.0760   23.9220 C   0  0  0  0  0  0  0  0  0  0  0  0
   11.9820    3.4970   23.6090 N   0  0  0  0  0  0  0  0  0  0  0  0
   13.0040    4.3930   23.3800 C   0  0  0  0  0  0  0  0  0  0  0  0
   14.1770    4.0760   23.2480 O   0  0  0  0  0  0  0  0  0  0  0  0
   12.6680    5.7140   23.4690 C   0  0  0  0  0  0  0  0  0  0  0  0
   10.9500    5.8530   23.8320 S   0  0  0  0  0  0  0  0  0  0  0  0
   10.7530    4.0670   23.8380 C   0  0  0  0  0  0  0  0  0  0  0  0
    9.7900    3.4880   24.3030 O   0  0  0  0  0  0  0  0  0  0  0  0
   10.3510    0.7680   22.8070 C   0  0  0  0  0  0  0  0  0  0  0  0
  1  2  2  0
  2  3  1  0
  2 10  1  0
  3  4  1  0
  4  5  2  0
  4  9  1  0
  5  6  1  0
  6  7  2  0
  7  8  1  0
  8  9  2  0
 10 11  1  0
 11 24  1  0
 11 12  2  0
 12 13  1  0
 13 14  2  0
 14 15  1  0
 15 16  1  0
 15 24  2  0
 16 17  1  0
 17 18  1  0
 17 22  1  0
 18 19  2  0
 18 20  1  0
 20 21  2  0
 21 22  1  0
 22 23  2  0
M  END
