WPC2368_minimised.pdb
     RDKit          3D

 24 25  0  0  0  0  0  0  0  0999 V2000
    9.0440    6.0890   22.6840 C   0  0  0  0  0  0  0  0  0  0  0  0
   10.0770    5.6240   23.7220 C   0  0  0  0  0  0  0  0  0  0  0  0
   10.1800    4.0940   23.8090 C   0  0  0  0  0  0  0  0  0  0  0  0
   11.0320    3.5230   22.7720 N   0  0  0  0  0  0  0  0  0  0  0  0
   12.6490    3.5570   22.9260 S   0  0  0  0  0  0  0  0  0  0  0  0
   12.9420    4.5100   23.9750 O   0  0  0  0  0  0  0  0  0  0  0  0
   13.0910    3.8510   21.5920 O   0  0  0  0  0  0  0  0  0  0  0  0
   13.0170    1.8870   23.4850 C   0  0  0  0  0  0  0  0  0  0  0  0
   12.3450    0.6980   22.8160 C   0  0  0  0  0  0  0  0  0  0  0  0
   13.1390   -0.2830   22.2040 C   0  0  0  0  0  0  0  0  0  0  0  0
   12.5450   -1.4000   21.6010 C   0  0  0  0  0  0  0  0  0  0  0  0
   11.1480   -1.5380   21.6040 C   0  0  0  0  0  0  0  0  0  0  0  0
   10.3490   -0.5700   22.2220 C   0  0  0  0  0  0  0  0  0  0  0  0
    8.9460   -0.6030   22.0650 N   0  0  0  0  0  0  0  0  0  0  0  0
    8.3270   -0.1990   20.9110 C   0  0  0  0  0  0  0  0  0  0  0  0
    8.9390    0.1420   19.9210 O   0  0  0  0  0  0  0  0  0  0  0  0
    6.9580   -0.1760   20.9380 N   0  0  0  0  0  0  0  0  0  0  0  0
    6.1670    0.3420   19.8780 C   0  0  0  0  0  0  0  0  0  0  0  0
    5.2210    1.3400   20.1440 C   0  0  0  0  0  0  0  0  0  0  0  0
    4.5780    1.9400   19.0520 C   0  0  0  0  0  0  0  0  0  0  0  0
    4.9070    1.5420   17.7470 C   0  0  0  0  0  0  0  0  0  0  0  0
    5.7760    0.5430   17.4810 N   0  0  0  0  0  0  0  0  0  0  0  0
    6.4030   -0.0250   18.5330 C   0  0  0  0  0  0  0  0  0  0  0  0
   10.9490    0.5180   22.8630 C   0  0  0  0  0  0  0  0  0  0  0  0
  1  2  1  0
  2  3  1  0
  3  4  1  0
  4  5  1  0
  5  6  2  0
  5  7  2  0
  5  8  1  0
  8  9  1  0
  9 24  2  0
  9 10  1  0
 10 11  2  0
 11 12  1  0
 12 13  2  0
 13 14  1  0
 13 24  1  0
 14 15  1  0
 15 16  2  0
 15 17  1  0
 17 18  1  0
 18 19  2  0
 18 23  1  0
 19 20  1  0
 20 21  2  0
 21 22  1  0
 22 23  2  0
M  END
