WPC2228_minimised.pdb
     RDKit          3D

 24 25  0  0  0  0  0  0  0  0999 V2000
    8.9980    4.1800   23.3810 O   0  0  0  0  0  0  0  0  0  0  0  0
    9.7370    5.1340   23.5170 C   0  0  0  0  0  0  0  0  0  0  0  0
    9.7000    6.1420   22.6460 O   0  0  0  0  0  0  0  0  0  0  0  0
   10.9570    5.1700   24.4460 C   0  0  0  0  0  0  0  0  0  0  0  0
   11.6360    3.8910   24.4730 O   0  0  0  0  0  0  0  0  0  0  0  0
   12.2050    3.4420   23.3150 C   0  0  0  0  0  0  0  0  0  0  0  0
   12.3820    4.1470   22.3380 O   0  0  0  0  0  0  0  0  0  0  0  0
   12.8080    2.0540   23.5040 C   0  0  0  0  0  0  0  0  0  0  0  0
   12.0820    0.9370   22.7820 C   0  0  0  0  0  0  0  0  0  0  0  0
   12.8280   -0.1090   22.2150 C   0  0  0  0  0  0  0  0  0  0  0  0
   12.1760   -1.1950   21.6190 C   0  0  0  0  0  0  0  0  0  0  0  0
   10.7750   -1.2310   21.5770 C   0  0  0  0  0  0  0  0  0  0  0  0
   10.0260   -0.1750   22.1150 C   0  0  0  0  0  0  0  0  0  0  0  0
    8.6260   -0.1490   21.9570 N   0  0  0  0  0  0  0  0  0  0  0  0
    8.0100   -0.0360   20.7420 C   0  0  0  0  0  0  0  0  0  0  0  0
    8.6140   -0.0590   19.6890 O   0  0  0  0  0  0  0  0  0  0  0  0
    6.6550    0.1450   20.8000 N   0  0  0  0  0  0  0  0  0  0  0  0
    5.8580    0.5840   19.7130 C   0  0  0  0  0  0  0  0  0  0  0  0
    4.9080    1.5880   19.9400 C   0  0  0  0  0  0  0  0  0  0  0  0
    4.2460    2.1230   18.8280 C   0  0  0  0  0  0  0  0  0  0  0  0
    4.5720    1.6670   17.5430 C   0  0  0  0  0  0  0  0  0  0  0  0
    5.4380    0.6550   17.3170 N   0  0  0  0  0  0  0  0  0  0  0  0
    6.0690    0.1350   18.3890 C   0  0  0  0  0  0  0  0  0  0  0  0
   10.6770    0.8990   22.7340 C   0  0  0  0  0  0  0  0  0  0  0  0
  1  2  2  0
  2  3  1  0
  2  4  1  0
  4  5  1  0
  5  6  1  0
  6  7  2  0
  6  8  1  0
  8  9  1  0
  9 24  2  0
  9 10  1  0
 10 11  2  0
 11 12  1  0
 12 13  2  0
 13 14  1  0
 13 24  1  0
 14 15  1  0
 15 16  2  0
 15 17  1  0
 17 18  1  0
 18 19  2  0
 18 23  1  0
 19 20  1  0
 20 21  2  0
 21 22  1  0
 22 23  2  0
M  END
