WPC2774_minimised.pdb
     RDKit          3D

 18 19  0  0  0  0  0  0  0  0999 V2000
   13.7990   -1.9870   22.1020 O   0  0  0  0  0  0  0  0  0  0  0  0
   13.2860   -0.9080   21.3440 C   0  0  0  0  0  0  0  0  0  0  0  0
   12.1950   -0.1980   22.1200 C   0  0  0  0  0  0  0  0  0  0  0  0
   10.8470   -0.5130   21.8790 C   0  0  0  0  0  0  0  0  0  0  0  0
    9.8250    0.1830   22.5410 C   0  0  0  0  0  0  0  0  0  0  0  0
   12.5150    0.8140   23.0420 C   0  0  0  0  0  0  0  0  0  0  0  0
   11.4920    1.5000   23.7170 C   0  0  0  0  0  0  0  0  0  0  0  0
    8.4720   -0.0330   22.1990 N   0  0  0  0  0  0  0  0  0  0  0  0
   10.1480    1.1790   23.4730 C   0  0  0  0  0  0  0  0  0  0  0  0
    7.9760    0.0930   20.9300 C   0  0  0  0  0  0  0  0  0  0  0  0
    8.6740    0.2360   19.9460 O   0  0  0  0  0  0  0  0  0  0  0  0
    6.6090    0.0980   20.8600 N   0  0  0  0  0  0  0  0  0  0  0  0
    5.8770    0.5530   19.7360 C   0  0  0  0  0  0  0  0  0  0  0  0
    6.2000    0.1620   18.4180 C   0  0  0  0  0  0  0  0  0  0  0  0
    4.8940    1.5320   19.9300 C   0  0  0  0  0  0  0  0  0  0  0  0
    5.6260    0.6980   17.3210 N   0  0  0  0  0  0  0  0  0  0  0  0
    4.3050    2.0970   18.7920 C   0  0  0  0  0  0  0  0  0  0  0  0
    4.7220    1.6830   17.5190 C   0  0  0  0  0  0  0  0  0  0  0  0
  1  2  1  0
  2  3  1  0
  3  4  2  0
  3  6  1  0
  4  5  1  0
  5  9  2  0
  5  8  1  0
  6  7  2  0
  7  9  1  0
  8 10  1  0
 10 11  2  0
 10 12  1  0
 12 13  1  0
 13 14  2  0
 13 15  1  0
 14 16  1  0
 15 17  2  0
 16 18  2  0
 17 18  1  0
M  END
