WPC2541_minimised.pdb
     RDKit          3D

 23 25  0  0  0  0  0  0  0  0999 V2000
    8.5940   -0.1550   19.6300 O   0  0  0  0  0  0  0  0  0  0  0  0
    7.9580   -0.1810   20.6640 C   0  0  0  0  0  0  0  0  0  0  0  0
    6.6000   -0.0160   20.6970 N   0  0  0  0  0  0  0  0  0  0  0  0
    5.8330    0.4990   19.6240 C   0  0  0  0  0  0  0  0  0  0  0  0
    4.8990    1.5090   19.8890 C   0  0  0  0  0  0  0  0  0  0  0  0
    4.2770    2.1240   18.7960 C   0  0  0  0  0  0  0  0  0  0  0  0
    4.6240    1.7370   17.4930 C   0  0  0  0  0  0  0  0  0  0  0  0
    5.4770    0.7220   17.2300 N   0  0  0  0  0  0  0  0  0  0  0  0
    6.0710    0.1270   18.2820 C   0  0  0  0  0  0  0  0  0  0  0  0
    8.5300   -0.3230   21.8950 N   0  0  0  0  0  0  0  0  0  0  0  0
    9.9190   -0.2670   22.1210 C   0  0  0  0  0  0  0  0  0  0  0  0
   10.7550   -1.2920   21.6580 C   0  0  0  0  0  0  0  0  0  0  0  0
   12.1450   -1.1830   21.8060 C   0  0  0  0  0  0  0  0  0  0  0  0
   12.6940   -0.0570   22.4350 C   0  0  0  0  0  0  0  0  0  0  0  0
   11.8610    0.9680   22.9200 C   0  0  0  0  0  0  0  0  0  0  0  0
   12.5100    2.1320   23.6570 C   0  0  0  0  0  0  0  0  0  0  0  0
   11.7380    3.3830   23.7680 N   0  0  0  0  0  0  0  0  0  0  0  0
   10.5730    3.5800   24.5440 N   0  0  0  0  0  0  0  0  0  0  0  0
    9.8740    4.7200   24.2720 N   0  0  0  0  0  0  0  0  0  0  0  0
   10.6320    5.2480   23.3210 C   0  0  0  0  0  0  0  0  0  0  0  0
   11.8550    4.5130   22.9940 C   0  0  0  0  0  0  0  0  0  0  0  0
   13.1210    4.9460   21.9860 S   0  0  0  0  0  0  0  0  0  0  0  0
   10.4680    0.8570   22.7500 C   0  0  0  0  0  0  0  0  0  0  0  0
  1  2  2  0
  2  3  1  0
  2 10  1  0
  3  4  1  0
  4  5  2  0
  4  9  1  0
  5  6  1  0
  6  7  2  0
  7  8  1  0
  8  9  2  0
 10 11  1  0
 11 23  1  0
 11 12  2  0
 12 13  1  0
 13 14  2  0
 14 15  1  0
 15 16  1  0
 15 23  2  0
 16 17  1  0
 17 18  1  0
 17 21  1  0
 18 19  1  0
 19 20  2  0
 20 21  1  0
 21 22  2  0
M  END
