WPC2213_minimised.pdb
     RDKit          3D

 24 25  0  0  0  0  0  0  0  0999 V2000
    9.0460    6.0820   23.1080 C   0  0  0  0  0  0  0  0  0  0  0  0
    9.1700    5.0560   21.9900 C   0  0  0  0  0  0  0  0  0  0  0  0
   10.0430    4.0020   22.4150 O   0  0  0  0  0  0  0  0  0  0  0  0
   11.3600    4.2320   22.7030 C   0  0  0  0  0  0  0  0  0  0  0  0
   11.8840    5.3240   22.8400 O   0  0  0  0  0  0  0  0  0  0  0  0
   12.0060    2.9440   23.1700 C   0  0  0  0  0  0  0  0  0  0  0  0
   11.3440    2.3980   24.4580 C   0  0  0  0  0  0  0  0  0  0  0  0
   11.7520    0.9400   24.7500 C   0  0  0  0  0  0  0  0  0  0  0  0
   11.3180    0.0230   23.6290 C   0  0  0  0  0  0  0  0  0  0  0  0
   12.2650   -0.5350   22.7520 C   0  0  0  0  0  0  0  0  0  0  0  0
   11.8440   -1.3680   21.7080 C   0  0  0  0  0  0  0  0  0  0  0  0
   10.4730   -1.5770   21.5020 C   0  0  0  0  0  0  0  0  0  0  0  0
    9.5270   -0.9300   22.3040 C   0  0  0  0  0  0  0  0  0  0  0  0
    8.1750   -0.8900   21.9140 N   0  0  0  0  0  0  0  0  0  0  0  0
    7.7690   -0.4280   20.6910 C   0  0  0  0  0  0  0  0  0  0  0  0
    8.5220   -0.2030   19.7620 O   0  0  0  0  0  0  0  0  0  0  0  0
    6.4230   -0.2030   20.6140 N   0  0  0  0  0  0  0  0  0  0  0  0
    5.7780    0.4480   19.5350 C   0  0  0  0  0  0  0  0  0  0  0  0
    4.8500    1.4610   19.8030 C   0  0  0  0  0  0  0  0  0  0  0  0
    4.3330    2.1750   18.7140 C   0  0  0  0  0  0  0  0  0  0  0  0
    4.7710    1.8750   17.4160 C   0  0  0  0  0  0  0  0  0  0  0  0
    5.6280    0.8660   17.1450 N   0  0  0  0  0  0  0  0  0  0  0  0
    6.1250    0.1790   18.1920 C   0  0  0  0  0  0  0  0  0  0  0  0
    9.9470   -0.1710   23.3980 C   0  0  0  0  0  0  0  0  0  0  0  0
  1  2  1  0
  2  3  1  0
  3  4  1  0
  4  5  2  0
  4  6  1  0
  6  7  1  0
  7  8  1  0
  8  9  1  0
  9 24  2  0
  9 10  1  0
 10 11  2  0
 11 12  1  0
 12 13  2  0
 13 14  1  0
 13 24  1  0
 14 15  1  0
 15 16  2  0
 15 17  1  0
 17 18  1  0
 18 19  2  0
 18 23  1  0
 19 20  1  0
 20 21  2  0
 21 22  1  0
 22 23  2  0
M  END
