WPC2723_minimised.pdb
     RDKit          3D

 21 22  0  0  0  0  0  0  0  0999 V2000
   15.3860    1.0190   17.9980 C   0  0  0  0  0  0  0  0  0  0  0  0
   15.4900    0.5010   19.2260 C   0  0  0  0  0  0  0  0  0  0  0  0
   14.5810   -0.5530   19.8010 C   0  0  0  0  0  0  0  0  0  0  0  0
   14.1680   -0.1950   21.1620 N   0  0  0  0  0  0  0  0  0  0  0  0
   13.1530   -1.0980   21.7270 C   0  0  0  0  0  0  0  0  0  0  0  0
   12.0810   -0.3410   22.5000 C   0  0  0  0  0  0  0  0  0  0  0  0
   10.7230   -0.5360   22.1830 C   0  0  0  0  0  0  0  0  0  0  0  0
    9.7220    0.1960   22.8440 C   0  0  0  0  0  0  0  0  0  0  0  0
   12.4250    0.6060   23.4820 C   0  0  0  0  0  0  0  0  0  0  0  0
   11.4230    1.3470   24.1300 C   0  0  0  0  0  0  0  0  0  0  0  0
    8.3710    0.0650   22.4600 N   0  0  0  0  0  0  0  0  0  0  0  0
   10.0720    1.1310   23.8250 C   0  0  0  0  0  0  0  0  0  0  0  0
    7.8810    0.4580   21.2450 C   0  0  0  0  0  0  0  0  0  0  0  0
    8.5680    0.9260   20.3630 O   0  0  0  0  0  0  0  0  0  0  0  0
    6.5360    0.2710   21.0800 N   0  0  0  0  0  0  0  0  0  0  0  0
    5.8240    0.6630   19.9190 C   0  0  0  0  0  0  0  0  0  0  0  0
    6.2190    0.2310   18.6320 C   0  0  0  0  0  0  0  0  0  0  0  0
    4.7950    1.6050   20.0300 C   0  0  0  0  0  0  0  0  0  0  0  0
    5.6460    0.6630   17.4880 N   0  0  0  0  0  0  0  0  0  0  0  0
    4.2260    2.0880   18.8440 C   0  0  0  0  0  0  0  0  0  0  0  0
    4.6900    1.6130   17.6080 C   0  0  0  0  0  0  0  0  0  0  0  0
  1  2  2  0
  2  3  1  0
  3  4  1  0
  4  5  1  0
  5  6  1  0
  6  9  2  0
  6  7  1  0
  7  8  2  0
  8 11  1  0
  8 12  1  0
  9 10  1  0
 10 12  2  0
 11 13  1  0
 13 14  2  0
 13 15  1  0
 15 16  1  0
 16 17  2  0
 16 18  1  0
 17 19  1  0
 18 20  2  0
 19 21  2  0
 20 21  1  0
M  END
