WPC2392_minimised.pdb
     RDKit          3D

 19 20  0  0  0  0  0  0  0  0999 V2000
    9.6400    6.1680   22.6440 N   0  0  0  0  0  0  0  0  0  0  0  0
    9.5090    5.5070   23.9210 O   0  0  0  0  0  0  0  0  0  0  0  0
   10.7180    4.8260   24.3110 C   0  0  0  0  0  0  0  0  0  0  0  0
   10.7960    3.4260   23.7060 C   0  0  0  0  0  0  0  0  0  0  0  0
   12.0430    2.8580   23.3850 C   0  0  0  0  0  0  0  0  0  0  0  0
   12.1230    1.5450   22.8880 C   0  0  0  0  0  0  0  0  0  0  0  0
   10.9510    0.8090   22.6570 C   0  0  0  0  0  0  0  0  0  0  0  0
    9.7020    1.3820   22.9430 C   0  0  0  0  0  0  0  0  0  0  0  0
    8.5030    0.7250   22.5970 N   0  0  0  0  0  0  0  0  0  0  0  0
    8.1040    0.5430   21.3020 C   0  0  0  0  0  0  0  0  0  0  0  0
    8.8540    0.6340   20.3510 O   0  0  0  0  0  0  0  0  0  0  0  0
    6.7590    0.3340   21.1570 N   0  0  0  0  0  0  0  0  0  0  0  0
    6.0530    0.6400   19.9670 C   0  0  0  0  0  0  0  0  0  0  0  0
    5.0310    1.5940   20.0380 C   0  0  0  0  0  0  0  0  0  0  0  0
    4.4670    2.0360   18.8360 C   0  0  0  0  0  0  0  0  0  0  0  0
    4.9380    1.5210   17.6210 C   0  0  0  0  0  0  0  0  0  0  0  0
    5.8800    0.5550   17.5410 N   0  0  0  0  0  0  0  0  0  0  0  0
    6.4410    0.1450   18.7010 C   0  0  0  0  0  0  0  0  0  0  0  0
    9.6280    2.6740   23.4800 C   0  0  0  0  0  0  0  0  0  0  0  0
  1  2  1  0
  2  3  1  0
  3  4  1  0
  4 19  2  0
  4  5  1  0
  5  6  2  0
  6  7  1  0
  7  8  2  0
  8  9  1  0
  8 19  1  0
  9 10  1  0
 10 11  2  0
 10 12  1  0
 12 13  1  0
 13 14  2  0
 13 18  1  0
 14 15  1  0
 15 16  2  0
 16 17  1  0
 17 18  2  0
M  END
