WPC2893_minimised.pdb
     RDKit          3D

 20 21  0  0  1  0  0  0  0  0999 V2000
   13.4060   -2.2000   22.6700 N   0  0  0  0  0  0  0  0  0  0  0  0
   13.1320   -0.8320   22.2450 C   0  0  1  0  0  0  0  0  0  0  0  0
   13.1020   -0.7890   20.7110 C   0  0  0  0  0  0  0  0  0  0  0  0
   14.4220   -0.8080   20.1610 O   0  0  0  0  0  0  0  0  0  0  0  0
   11.8430   -0.3020   22.8630 C   0  0  0  0  0  0  0  0  0  0  0  0
   10.5860   -0.6060   22.3040 C   0  0  0  0  0  0  0  0  0  0  0  0
    9.4160   -0.0550   22.8490 C   0  0  0  0  0  0  0  0  0  0  0  0
   11.9040    0.5470   23.9840 C   0  0  0  0  0  0  0  0  0  0  0  0
   10.7290    1.0730   24.5440 C   0  0  0  0  0  0  0  0  0  0  0  0
    8.1640   -0.2590   22.2430 N   0  0  0  0  0  0  0  0  0  0  0  0
    9.4850    0.7700   23.9780 C   0  0  0  0  0  0  0  0  0  0  0  0
    7.8680    0.0250   20.9390 C   0  0  0  0  0  0  0  0  0  0  0  0
    8.6870    0.2720   20.0750 O   0  0  0  0  0  0  0  0  0  0  0  0
    6.5190    0.0500   20.7240 N   0  0  0  0  0  0  0  0  0  0  0  0
    5.8790    0.5930   19.5880 C   0  0  0  0  0  0  0  0  0  0  0  0
    6.2810    0.2730   18.2750 C   0  0  0  0  0  0  0  0  0  0  0  0
    4.8720    1.5460   19.7810 C   0  0  0  0  0  0  0  0  0  0  0  0
    5.7370    0.8390   17.1770 N   0  0  0  0  0  0  0  0  0  0  0  0
    4.3250    2.1520   18.6440 C   0  0  0  0  0  0  0  0  0  0  0  0
    4.7990    1.7940   17.3750 C   0  0  0  0  0  0  0  0  0  0  0  0
  2  1  1  6
  2  3  1  0
  2  5  1  0
  3  4  1  0
  5  8  2  0
  5  6  1  0
  6  7  2  0
  7 10  1  0
  7 11  1  0
  8  9  1  0
  9 11  2  0
 10 12  1  0
 12 13  2  0
 12 14  1  0
 14 15  1  0
 15 16  2  0
 15 17  1  0
 16 18  1  0
 17 19  2  0
 18 20  2  0
 19 20  1  0
M  END
