WPC2474_minimised.pdb
     RDKit          3D

 23 24  0  0  0  0  0  0  0  0999 V2000
   12.6800    7.4030   25.7380 C   0  0  0  0  0  0  0  0  0  0  0  0
   11.9750    6.3870   24.8150 C   0  0  0  0  0  0  0  0  0  0  0  0
   12.9550    5.7760   23.7920 C   0  0  0  0  0  0  0  0  0  0  0  0
   12.2690    4.8710   22.7500 C   0  0  0  0  0  0  0  0  0  0  0  0
   12.2860    3.3840   23.1360 C   0  0  0  0  0  0  0  0  0  0  0  0
   11.4440    3.0890   24.3020 N   0  0  0  0  0  0  0  0  0  0  0  0
   11.5380    1.6860   24.7360 C   0  0  0  0  0  0  0  0  0  0  0  0
   11.1550    0.6970   23.6550 C   0  0  0  0  0  0  0  0  0  0  0  0
   12.1550    0.0180   22.9330 C   0  0  0  0  0  0  0  0  0  0  0  0
   11.8030   -0.9230   21.9540 C   0  0  0  0  0  0  0  0  0  0  0  0
   10.4490   -1.1530   21.6730 C   0  0  0  0  0  0  0  0  0  0  0  0
    9.4540   -0.4320   22.3480 C   0  0  0  0  0  0  0  0  0  0  0  0
    8.1090   -0.5200   21.9430 N   0  0  0  0  0  0  0  0  0  0  0  0
    7.6860   -0.2170   20.6790 C   0  0  0  0  0  0  0  0  0  0  0  0
    8.4310   -0.0520   19.7330 O   0  0  0  0  0  0  0  0  0  0  0  0
    6.3310   -0.0630   20.5890 N   0  0  0  0  0  0  0  0  0  0  0  0
    5.6660    0.5330   19.4930 C   0  0  0  0  0  0  0  0  0  0  0  0
    4.7220    1.5380   19.7380 C   0  0  0  0  0  0  0  0  0  0  0  0
    4.1920    2.2150   18.6330 C   0  0  0  0  0  0  0  0  0  0  0  0
    4.6310    1.8860   17.3430 C   0  0  0  0  0  0  0  0  0  0  0  0
    5.5050    0.8840   17.0950 N   0  0  0  0  0  0  0  0  0  0  0  0
    6.0150    0.2330   18.1590 C   0  0  0  0  0  0  0  0  0  0  0  0
    9.8030    0.4740   23.3550 C   0  0  0  0  0  0  0  0  0  0  0  0
  1  2  1  0
  2  3  1  0
  3  4  1  0
  4  5  1  0
  5  6  1  0
  6  7  1  0
  7  8  1  0
  8 23  2  0
  8  9  1  0
  9 10  2  0
 10 11  1  0
 11 12  2  0
 12 13  1  0
 12 23  1  0
 13 14  1  0
 14 15  2  0
 14 16  1  0
 16 17  1  0
 17 18  2  0
 17 22  1  0
 18 19  1  0
 19 20  2  0
 20 21  1  0
 21 22  2  0
M  END
