WPC2859_minimised.pdb
     RDKit          3D

 21 22  0  0  1  0  0  0  0  0999 V2000
   15.4430    0.2740   19.9650 C   0  0  0  0  0  0  0  0  0  0  0  0
   14.5200   -0.8670   20.0890 N   0  0  0  0  0  0  0  0  0  0  0  0
   13.2150   -0.5290   20.6870 C   0  0  0  0  0  0  0  0  0  0  0  0
   13.2250   -0.6750   22.2200 C   0  0  2  0  0  0  0  0  0  0  0  0
   13.4550   -2.0400   22.5460 O   0  0  0  0  0  0  0  0  0  0  0  0
   11.9280   -0.1950   22.8590 C   0  0  0  0  0  0  0  0  0  0  0  0
   10.6730   -0.5320   22.3140 C   0  0  0  0  0  0  0  0  0  0  0  0
    9.4930   -0.0240   22.8810 C   0  0  0  0  0  0  0  0  0  0  0  0
   11.9780    0.6430   23.9890 C   0  0  0  0  0  0  0  0  0  0  0  0
   10.7950    1.1150   24.5770 C   0  0  0  0  0  0  0  0  0  0  0  0
    8.2400   -0.2420   22.2790 N   0  0  0  0  0  0  0  0  0  0  0  0
    9.5530    0.7810   24.0250 C   0  0  0  0  0  0  0  0  0  0  0  0
    7.9260    0.0680   20.9840 C   0  0  0  0  0  0  0  0  0  0  0  0
    8.7330    0.3580   20.1220 O   0  0  0  0  0  0  0  0  0  0  0  0
    6.5770    0.0670   20.7730 N   0  0  0  0  0  0  0  0  0  0  0  0
    5.9270    0.5960   19.6360 C   0  0  0  0  0  0  0  0  0  0  0  0
    6.3090    0.2480   18.3230 C   0  0  0  0  0  0  0  0  0  0  0  0
    4.9310    1.5620   19.8230 C   0  0  0  0  0  0  0  0  0  0  0  0
    5.7480    0.7920   17.2220 N   0  0  0  0  0  0  0  0  0  0  0  0
    4.3720    2.1490   18.6830 C   0  0  0  0  0  0  0  0  0  0  0  0
    4.8190    1.7570   17.4130 C   0  0  0  0  0  0  0  0  0  0  0  0
  1  2  1  0
  2  3  1  0
  3  4  1  0
  4  5  1  6
  4  6  1  0
  6  9  2  0
  6  7  1  0
  7  8  2  0
  8 11  1  0
  8 12  1  0
  9 10  1  0
 10 12  2  0
 11 13  1  0
 13 14  2  0
 13 15  1  0
 15 16  1  0
 16 17  2  0
 16 18  1  0
 17 19  1  0
 18 20  2  0
 19 21  2  0
 20 21  1  0
M  END
