WPC2405_minimised.pdb
     RDKit          3D

 24 26  0  0  0  0  0  0  0  0999 V2000
    6.9470    3.9840   22.0060 N   0  0  0  0  0  0  0  0  0  0  0  0
    8.1580    4.4320   22.4070 C   0  0  0  0  0  0  0  0  0  0  0  0
    8.9340    3.5860   23.0130 N   0  0  0  0  0  0  0  0  0  0  0  0
   10.0580    4.3140   23.3480 C   0  0  0  0  0  0  0  0  0  0  0  0
   11.4700    3.6810   24.1720 S   0  0  0  0  0  0  0  0  0  0  0  0
   10.8920    2.0470   24.7780 C   0  0  0  0  0  0  0  0  0  0  0  0
   10.8750    0.9860   23.7030 C   0  0  0  0  0  0  0  0  0  0  0  0
   12.0670    0.4780   23.1580 C   0  0  0  0  0  0  0  0  0  0  0  0
   12.0170   -0.5350   22.1860 C   0  0  0  0  0  0  0  0  0  0  0  0
   10.7740   -1.0260   21.7530 C   0  0  0  0  0  0  0  0  0  0  0  0
    9.5890   -0.4980   22.2840 C   0  0  0  0  0  0  0  0  0  0  0  0
    8.3280   -0.8430   21.7670 N   0  0  0  0  0  0  0  0  0  0  0  0
    7.8960   -0.4080   20.5480 C   0  0  0  0  0  0  0  0  0  0  0  0
    8.6290   -0.0340   19.6550 O   0  0  0  0  0  0  0  0  0  0  0  0
    6.5350   -0.3400   20.4610 N   0  0  0  0  0  0  0  0  0  0  0  0
    5.8510    0.3590   19.4410 C   0  0  0  0  0  0  0  0  0  0  0  0
    4.9280    1.3550   19.7830 C   0  0  0  0  0  0  0  0  0  0  0  0
    4.3900    2.1260   18.7450 C   0  0  0  0  0  0  0  0  0  0  0  0
    4.8060    1.8990   17.4240 C   0  0  0  0  0  0  0  0  0  0  0  0
    5.6680    0.9150   17.0870 N   0  0  0  0  0  0  0  0  0  0  0  0
    6.1810    0.1700   18.0840 C   0  0  0  0  0  0  0  0  0  0  0  0
    9.6410    0.4940   23.2640 C   0  0  0  0  0  0  0  0  0  0  0  0
   10.0820    5.6270   23.1980 N   0  0  0  0  0  0  0  0  0  0  0  0
    8.7320    6.0740   22.4270 S   0  0  0  0  0  0  0  0  0  0  0  0
  1  2  1  0
  2  3  2  0
  2 24  1  0
  3  4  1  0
  4 23  2  0
  4  5  1  0
  5  6  1  0
  6  7  1  0
  7 22  1  0
  7  8  2  0
  8  9  1  0
  9 10  2  0
 10 11  1  0
 11 12  1  0
 11 22  2  0
 12 13  1  0
 13 14  2  0
 13 15  1  0
 15 16  1  0
 16 17  2  0
 16 21  1  0
 17 18  1  0
 18 19  2  0
 19 20  1  0
 20 21  2  0
 23 24  1  0
M  END
