WPC2875_minimised.pdb
     RDKit          3D

 21 22  0  0  0  0  0  0  0  0999 V2000
   16.6650    0.9550   19.4990 C   0  0  0  0  0  0  0  0  0  0  0  0
   15.2590    0.4110   19.2860 C   0  0  0  0  0  0  0  0  0  0  0  0
   14.8020   -0.5270   20.3190 N   0  0  0  0  0  0  0  0  0  0  0  0
   14.1170    0.0770   21.4800 C   0  0  0  0  0  0  0  0  0  0  0  0
   12.9770   -0.8490   21.9410 C   0  0  0  0  0  0  0  0  0  0  0  0
   11.8430   -0.1160   22.6460 C   0  0  0  0  0  0  0  0  0  0  0  0
   10.5210   -0.2830   22.1900 C   0  0  0  0  0  0  0  0  0  0  0  0
    9.4550    0.3750   22.8260 C   0  0  0  0  0  0  0  0  0  0  0  0
   12.0890    0.7380   23.7390 C   0  0  0  0  0  0  0  0  0  0  0  0
   11.0210    1.4000   24.3680 C   0  0  0  0  0  0  0  0  0  0  0  0
    8.1300    0.2440   22.3590 N   0  0  0  0  0  0  0  0  0  0  0  0
    9.7060    1.2080   23.9230 C   0  0  0  0  0  0  0  0  0  0  0  0
    7.7200    0.4620   21.0730 C   0  0  0  0  0  0  0  0  0  0  0  0
    8.4710    0.6870   20.1470 O   0  0  0  0  0  0  0  0  0  0  0  0
    6.3630    0.4230   20.9150 N   0  0  0  0  0  0  0  0  0  0  0  0
    5.6830    0.8330   19.7430 C   0  0  0  0  0  0  0  0  0  0  0  0
    6.0730    0.3940   18.4560 C   0  0  0  0  0  0  0  0  0  0  0  0
    4.6720    1.7940   19.8550 C   0  0  0  0  0  0  0  0  0  0  0  0
    5.5200    0.8540   17.3150 N   0  0  0  0  0  0  0  0  0  0  0  0
    4.1210    2.2970   18.6720 C   0  0  0  0  0  0  0  0  0  0  0  0
    4.5890    1.8290   17.4360 C   0  0  0  0  0  0  0  0  0  0  0  0
  1  2  1  0
  2  3  1  0
  3  4  1  0
  4  5  1  0
  5  6  1  0
  6  9  2  0
  6  7  1  0
  7  8  2  0
  8 11  1  0
  8 12  1  0
  9 10  1  0
 10 12  2  0
 11 13  1  0
 13 14  2  0
 13 15  1  0
 15 16  1  0
 16 17  2  0
 16 18  1  0
 17 19  1  0
 18 20  2  0
 19 21  2  0
 20 21  1  0
M  END
