WPC2749_minimised.pdb
     RDKit          3D

 21 22  0  0  0  0  0  0  0  0999 V2000
   17.3330    1.0220   18.2550 O   0  0  0  0  0  0  0  0  0  0  0  0
   16.0540    1.3020   18.7980 C   0  0  0  0  0  0  0  0  0  0  0  0
   15.5120    0.1420   19.6440 C   0  0  0  0  0  0  0  0  0  0  0  0
   14.5860    0.8150   21.0990 S   0  0  0  0  0  0  0  0  0  0  0  0
   13.4100   -0.5340   21.5330 C   0  0  0  0  0  0  0  0  0  0  0  0
   12.2270    0.0160   22.3210 C   0  0  0  0  0  0  0  0  0  0  0  0
   10.9130   -0.3170   21.9430 C   0  0  0  0  0  0  0  0  0  0  0  0
    9.8100    0.2380   22.6110 C   0  0  0  0  0  0  0  0  0  0  0  0
   12.4240    0.9000   23.3990 C   0  0  0  0  0  0  0  0  0  0  0  0
   11.3200    1.4430   24.0770 C   0  0  0  0  0  0  0  0  0  0  0  0
    8.4890   -0.0030   22.1760 N   0  0  0  0  0  0  0  0  0  0  0  0
   10.0160    1.1070   23.6900 C   0  0  0  0  0  0  0  0  0  0  0  0
    8.0380    0.1390   20.8910 C   0  0  0  0  0  0  0  0  0  0  0  0
    8.7530    0.2810   19.9200 O   0  0  0  0  0  0  0  0  0  0  0  0
    6.6720    0.1600   20.8010 N   0  0  0  0  0  0  0  0  0  0  0  0
    5.9440    0.6200   19.6780 C   0  0  0  0  0  0  0  0  0  0  0  0
    6.2580    0.2240   18.3580 C   0  0  0  0  0  0  0  0  0  0  0  0
    4.9490    1.5860   19.8760 C   0  0  0  0  0  0  0  0  0  0  0  0
    5.6500    0.7340   17.2660 N   0  0  0  0  0  0  0  0  0  0  0  0
    4.3330    2.1300   18.7430 C   0  0  0  0  0  0  0  0  0  0  0  0
    4.7300    1.7040   17.4680 C   0  0  0  0  0  0  0  0  0  0  0  0
  1  2  1  0
  2  3  1  0
  3  4  1  0
  4  5  1  0
  5  6  1  0
  6  9  2  0
  6  7  1  0
  7  8  2  0
  8 11  1  0
  8 12  1  0
  9 10  1  0
 10 12  2  0
 11 13  1  0
 13 14  2  0
 13 15  1  0
 15 16  1  0
 16 17  2  0
 16 18  1  0
 17 19  1  0
 18 20  2  0
 19 21  2  0
 20 21  1  0
M  END
