WPC2540_minimised.pdb
     RDKit          3D

 24 25  0  0  0  0  0  0  0  0999 V2000
    8.5880    0.0370   19.6560 O   0  0  0  0  0  0  0  0  0  0  0  0
    7.8810   -0.1710   20.6210 C   0  0  0  0  0  0  0  0  0  0  0  0
    6.5160   -0.1710   20.5540 N   0  0  0  0  0  0  0  0  0  0  0  0
    5.7940    0.4130   19.4890 C   0  0  0  0  0  0  0  0  0  0  0  0
    4.8590    1.4150   19.7760 C   0  0  0  0  0  0  0  0  0  0  0  0
    4.2870    2.1020   18.6980 C   0  0  0  0  0  0  0  0  0  0  0  0
    4.6820    1.7870   17.3900 C   0  0  0  0  0  0  0  0  0  0  0  0
    5.5520    0.7920   17.1030 N   0  0  0  0  0  0  0  0  0  0  0  0
    6.1000    0.1300   18.1410 C   0  0  0  0  0  0  0  0  0  0  0  0
    8.3550   -0.3310   21.8890 N   0  0  0  0  0  0  0  0  0  0  0  0
    9.6100    0.1520   22.3000 C   0  0  0  0  0  0  0  0  0  0  0  0
   10.8110   -0.4080   21.8380 C   0  0  0  0  0  0  0  0  0  0  0  0
   12.0380    0.1540   22.2320 C   0  0  0  0  0  0  0  0  0  0  0  0
   12.0570    1.2720   23.0840 C   0  0  0  0  0  0  0  0  0  0  0  0
   10.8480    1.8340   23.5380 C   0  0  0  0  0  0  0  0  0  0  0  0
   10.8350    2.9710   24.5410 C   0  0  0  0  0  0  0  0  0  0  0  0
   10.9500    4.4050   23.9630 C   0  0  0  0  0  0  0  0  0  0  0  0
   12.2590    4.5830   23.2100 C   0  0  0  0  0  0  0  0  0  0  0  0
   13.2750    4.7900   23.8400 O   0  0  0  0  0  0  0  0  0  0  0  0
   12.1760    5.0520   21.9560 O   0  0  0  0  0  0  0  0  0  0  0  0
    9.6990    4.9180   23.2620 C   0  0  0  0  0  0  0  0  0  0  0  0
    8.6270    4.3540   23.3170 O   0  0  0  0  0  0  0  0  0  0  0  0
    9.7450    6.2500   23.0910 O   0  0  0  0  0  0  0  0  0  0  0  0
    9.6310    1.2650   23.1440 C   0  0  0  0  0  0  0  0  0  0  0  0
  1  2  2  0
  2 10  1  0
  2  3  1  0
  3  4  1  0
  4  5  2  0
  4  9  1  0
  5  6  1  0
  6  7  2  0
  7  8  1  0
  8  9  2  0
 10 11  1  0
 11 12  2  0
 11 24  1  0
 12 13  1  0
 13 14  2  0
 14 15  1  0
 15 16  1  0
 15 24  2  0
 16 17  1  0
 17 18  1  0
 17 21  1  0
 18 19  2  0
 18 20  1  0
 21 22  2  0
 21 23  1  0
M  END
