WPC2762_minimised.pdb
     RDKit          3D

 20 21  0  0  0  0  0  0  0  0999 V2000
   14.1220   -1.8820   20.5570 O   0  0  0  0  0  0  0  0  0  0  0  0
   13.6900   -2.1300   21.6690 C   0  0  0  0  0  0  0  0  0  0  0  0
   13.1420   -1.2000   22.5070 N   0  0  0  0  0  0  0  0  0  0  0  0
   13.0370    0.2200   22.2010 C   0  0  0  0  0  0  0  0  0  0  0  0
   11.7400    0.7770   22.7430 C   0  0  0  0  0  0  0  0  0  0  0  0
   10.5190    0.2350   22.3130 C   0  0  0  0  0  0  0  0  0  0  0  0
    9.3110    0.7390   22.8160 C   0  0  0  0  0  0  0  0  0  0  0  0
   11.7460    1.8350   23.6640 C   0  0  0  0  0  0  0  0  0  0  0  0
   10.5380    2.3280   24.1830 C   0  0  0  0  0  0  0  0  0  0  0  0
    8.0750    0.2740   22.3270 N   0  0  0  0  0  0  0  0  0  0  0  0
    9.3200    1.7720   23.7610 C   0  0  0  0  0  0  0  0  0  0  0  0
    7.7280    0.2660   21.0060 C   0  0  0  0  0  0  0  0  0  0  0  0
    8.5150    0.4080   20.0900 O   0  0  0  0  0  0  0  0  0  0  0  0
    6.3790    0.1600   20.8160 N   0  0  0  0  0  0  0  0  0  0  0  0
    5.7180    0.6170   19.6540 C   0  0  0  0  0  0  0  0  0  0  0  0
    6.1350    0.2490   18.3560 C   0  0  0  0  0  0  0  0  0  0  0  0
    4.7200    1.5880   19.8000 C   0  0  0  0  0  0  0  0  0  0  0  0
    5.6250    0.7970   17.2330 N   0  0  0  0  0  0  0  0  0  0  0  0
    4.2050    2.1700   18.6370 C   0  0  0  0  0  0  0  0  0  0  0  0
    4.7020    1.7740   17.3880 C   0  0  0  0  0  0  0  0  0  0  0  0
  1  2  2  0
  2  3  1  0
  3  4  1  0
  4  5  1  0
  5  8  2  0
  5  6  1  0
  6  7  2  0
  7 10  1  0
  7 11  1  0
  8  9  1  0
  9 11  2  0
 10 12  1  0
 12 13  2  0
 12 14  1  0
 14 15  1  0
 15 16  2  0
 15 17  1  0
 16 18  1  0
 17 19  2  0
 18 20  2  0
 19 20  1  0
M  END
