WPC2411_minimised.pdb
     RDKit          3D

 20 21  0  0  0  0  0  0  0  0999 V2000
   13.9420    5.9450   22.1180 N   0  0  0  0  0  0  0  0  0  0  0  0
   13.1570    4.8080   22.6110 C   0  0  0  0  0  0  0  0  0  0  0  0
   11.8810    5.2630   23.3340 C   0  0  0  0  0  0  0  0  0  0  0  0
   11.2650    4.0120   24.5420 S   0  0  0  0  0  0  0  0  0  0  0  0
   11.1440    2.4580   23.6720 C   0  0  0  0  0  0  0  0  0  0  0  0
   12.2850    1.7010   23.3490 C   0  0  0  0  0  0  0  0  0  0  0  0
   12.1540    0.4740   22.6780 C   0  0  0  0  0  0  0  0  0  0  0  0
   10.8770   -0.0080   22.3430 C   0  0  0  0  0  0  0  0  0  0  0  0
    9.7370    0.7340   22.6920 C   0  0  0  0  0  0  0  0  0  0  0  0
    8.4480    0.3010   22.3280 N   0  0  0  0  0  0  0  0  0  0  0  0
    8.0040    0.2430   21.0390 C   0  0  0  0  0  0  0  0  0  0  0  0
    8.7380    0.3060   20.0740 O   0  0  0  0  0  0  0  0  0  0  0  0
    6.6430    0.1830   20.9260 N   0  0  0  0  0  0  0  0  0  0  0  0
    5.9310    0.5910   19.7720 C   0  0  0  0  0  0  0  0  0  0  0  0
    4.9350    1.5640   19.9190 C   0  0  0  0  0  0  0  0  0  0  0  0
    4.3670    2.0960   18.7560 C   0  0  0  0  0  0  0  0  0  0  0  0
    4.8190    1.6600   17.5040 C   0  0  0  0  0  0  0  0  0  0  0  0
    5.7360    0.6790   17.3490 N   0  0  0  0  0  0  0  0  0  0  0  0
    6.2900    0.1710   18.4710 C   0  0  0  0  0  0  0  0  0  0  0  0
    9.8730    1.9620   23.3540 C   0  0  0  0  0  0  0  0  0  0  0  0
  1  2  1  0
  2  3  1  0
  3  4  1  0
  4  5  1  0
  5 20  2  0
  5  6  1  0
  6  7  2  0
  7  8  1  0
  8  9  2  0
  9 10  1  0
  9 20  1  0
 10 11  1  0
 11 12  2  0
 11 13  1  0
 13 14  1  0
 14 15  2  0
 14 19  1  0
 15 16  1  0
 16 17  2  0
 17 18  1  0
 18 19  2  0
M  END
