WPC2546_minimised.pdb
     RDKit          3D

 24 25  0  0  1  0  0  0  0  0999 V2000
   14.1020    5.5490   21.7000 C   0  0  0  0  0  0  0  0  0  0  0  0
   13.7360    4.6410   22.8840 C   0  0  0  0  0  0  0  0  0  0  0  0
   12.3500    4.9620   23.4760 C   0  0  2  0  0  0  0  0  0  0  0  0
   12.3710    6.1210   24.4970 C   0  0  0  0  0  0  0  0  0  0  0  0
   11.9310    3.7590   24.1320 O   0  0  0  0  0  0  0  0  0  0  0  0
   10.6060    3.5410   24.3520 C   0  0  0  0  0  0  0  0  0  0  0  0
    9.7290    4.3740   24.2030 O   0  0  0  0  0  0  0  0  0  0  0  0
   10.3870    2.1460   24.9180 C   0  0  0  0  0  0  0  0  0  0  0  0
   10.4470    1.0730   23.8510 C   0  0  0  0  0  0  0  0  0  0  0  0
   11.6780    0.6010   23.3600 C   0  0  0  0  0  0  0  0  0  0  0  0
   11.7060   -0.3880   22.3620 C   0  0  0  0  0  0  0  0  0  0  0  0
   10.5000   -0.9000   21.8540 C   0  0  0  0  0  0  0  0  0  0  0  0
    9.2760   -0.4180   22.3420 C   0  0  0  0  0  0  0  0  0  0  0  0
    8.0500   -0.7930   21.7700 N   0  0  0  0  0  0  0  0  0  0  0  0
    7.6960   -0.4450   20.5000 C   0  0  0  0  0  0  0  0  0  0  0  0
    8.4850   -0.1830   19.6140 O   0  0  0  0  0  0  0  0  0  0  0  0
    6.3420   -0.3350   20.3580 N   0  0  0  0  0  0  0  0  0  0  0  0
    5.7120    0.3720   19.3110 C   0  0  0  0  0  0  0  0  0  0  0  0
    4.7720    1.3620   19.6240 C   0  0  0  0  0  0  0  0  0  0  0  0
    4.2730    2.1400   18.5720 C   0  0  0  0  0  0  0  0  0  0  0  0
    4.7410    1.9240   17.2680 C   0  0  0  0  0  0  0  0  0  0  0  0
    5.6210    0.9460   16.9560 N   0  0  0  0  0  0  0  0  0  0  0  0
    6.0990    0.1960   17.9680 C   0  0  0  0  0  0  0  0  0  0  0  0
    9.2510    0.5580   23.3400 C   0  0  0  0  0  0  0  0  0  0  0  0
  1  2  1  0
  2  3  1  0
  3  4  1  1
  3  5  1  0
  5  6  1  0
  6  7  2  0
  6  8  1  0
  8  9  1  0
  9 24  2  0
  9 10  1  0
 10 11  2  0
 11 12  1  0
 12 13  2  0
 13 14  1  0
 13 24  1  0
 14 15  1  0
 15 16  2  0
 15 17  1  0
 17 18  1  0
 18 19  2  0
 18 23  1  0
 19 20  1  0
 20 21  2  0
 21 22  1  0
 22 23  2  0
M  END
