WPC2732_minimised.pdb
     RDKit          3D

 21 22  0  0  0  0  0  0  0  0999 V2000
   16.6070    0.9570   19.4320 C   0  0  0  0  0  0  0  0  0  0  0  0
   15.1900    0.3860   19.4400 C   0  0  0  0  0  0  0  0  0  0  0  0
   14.9700   -0.4660   20.5780 O   0  0  0  0  0  0  0  0  0  0  0  0
   14.2110    0.1060   21.6670 C   0  0  0  0  0  0  0  0  0  0  0  0
   12.9520   -0.7620   21.8530 C   0  0  0  0  0  0  0  0  0  0  0  0
   11.8020   -0.0660   22.5730 C   0  0  0  0  0  0  0  0  0  0  0  0
   10.4850   -0.2500   22.1110 C   0  0  0  0  0  0  0  0  0  0  0  0
    9.4020    0.3540   22.7740 C   0  0  0  0  0  0  0  0  0  0  0  0
   12.0230    0.7400   23.7060 C   0  0  0  0  0  0  0  0  0  0  0  0
   10.9390    1.3420   24.3660 C   0  0  0  0  0  0  0  0  0  0  0  0
    8.0790    0.2060   22.3080 N   0  0  0  0  0  0  0  0  0  0  0  0
    9.6310    1.1430   23.9070 C   0  0  0  0  0  0  0  0  0  0  0  0
    7.6600    0.4400   21.0280 C   0  0  0  0  0  0  0  0  0  0  0  0
    8.4020    0.6860   20.1010 O   0  0  0  0  0  0  0  0  0  0  0  0
    6.3020    0.3930   20.8790 N   0  0  0  0  0  0  0  0  0  0  0  0
    5.6160    0.8210   19.7180 C   0  0  0  0  0  0  0  0  0  0  0  0
    6.0010    0.4000   18.4250 C   0  0  0  0  0  0  0  0  0  0  0  0
    4.6110    1.7860   19.8480 C   0  0  0  0  0  0  0  0  0  0  0  0
    5.4480    0.8790   17.2910 N   0  0  0  0  0  0  0  0  0  0  0  0
    4.0590    2.3100   18.6730 C   0  0  0  0  0  0  0  0  0  0  0  0
    4.5200    1.8550   17.4290 C   0  0  0  0  0  0  0  0  0  0  0  0
  1  2  1  0
  2  3  1  0
  3  4  1  0
  4  5  1  0
  5  6  1  0
  6  9  2  0
  6  7  1  0
  7  8  2  0
  8 11  1  0
  8 12  1  0
  9 10  1  0
 10 12  2  0
 11 13  1  0
 13 14  2  0
 13 15  1  0
 15 16  1  0
 16 17  2  0
 16 18  1  0
 17 19  1  0
 18 20  2  0
 19 21  2  0
 20 21  1  0
M  END
