WPC2338_minimised.pdb
     RDKit          3D

 23 24  0  0  0  0  0  0  0  0999 V2000
   12.1020    5.9580   24.8030 C   0  0  0  0  0  0  0  0  0  0  0  0
   11.4180    4.9510   23.8430 C   0  0  0  0  0  0  0  0  0  0  0  0
   12.3920    4.6180   22.6880 C   0  0  0  0  0  0  0  0  0  0  0  0
   11.0870    3.4360   24.8650 S   0  0  0  0  0  0  0  0  0  0  0  0
   11.0040    2.0200   23.7910 C   0  0  0  0  0  0  0  0  0  0  0  0
   12.1760    1.4000   23.3240 C   0  0  0  0  0  0  0  0  0  0  0  0
   12.0910    0.2830   22.4750 C   0  0  0  0  0  0  0  0  0  0  0  0
   10.8310   -0.2190   22.1050 C   0  0  0  0  0  0  0  0  0  0  0  0
    9.6640    0.3850   22.6010 C   0  0  0  0  0  0  0  0  0  0  0  0
    8.3870   -0.0460   22.1910 N   0  0  0  0  0  0  0  0  0  0  0  0
    7.9420    0.0460   20.9050 C   0  0  0  0  0  0  0  0  0  0  0  0
    8.6710    0.2430   19.9550 O   0  0  0  0  0  0  0  0  0  0  0  0
    6.5820   -0.0200   20.7890 N   0  0  0  0  0  0  0  0  0  0  0  0
    5.8710    0.4760   19.6710 C   0  0  0  0  0  0  0  0  0  0  0  0
    4.8980    1.4610   19.8780 C   0  0  0  0  0  0  0  0  0  0  0  0
    4.3360    2.0700   18.7500 C   0  0  0  0  0  0  0  0  0  0  0  0
    4.7700    1.6930   17.4720 C   0  0  0  0  0  0  0  0  0  0  0  0
    5.6710    0.7070   17.2600 N   0  0  0  0  0  0  0  0  0  0  0  0
    6.2180    0.1260   18.3470 C   0  0  0  0  0  0  0  0  0  0  0  0
    9.7520    1.4960   23.4490 C   0  0  0  0  0  0  0  0  0  0  0  0
   10.0840    5.5390   23.3190 C   0  0  0  0  0  0  0  0  0  0  0  0
    9.7820    6.7100   23.4370 O   0  0  0  0  0  0  0  0  0  0  0  0
    9.1580    4.6250   22.9940 O   0  0  0  0  0  0  0  0  0  0  0  0
  1  2  1  0
  2 21  1  0
  2  3  1  0
  2  4  1  0
  4  5  1  0
  5 20  2  0
  5  6  1  0
  6  7  2  0
  7  8  1  0
  8  9  2  0
  9 10  1  0
  9 20  1  0
 10 11  1  0
 11 12  2  0
 11 13  1  0
 13 14  1  0
 14 15  2  0
 14 19  1  0
 15 16  1  0
 16 17  2  0
 17 18  1  0
 18 19  2  0
 21 22  2  0
 21 23  1  0
M  END
