WPC2207_minimised.pdb
     RDKit          3D

 21 22  0  0  0  0  0  0  0  0999 V2000
    8.6850    0.2890   20.0190 O   0  0  0  0  0  0  0  0  0  0  0  0
    7.9600    0.1240   20.9790 C   0  0  0  0  0  0  0  0  0  0  0  0
    6.6020    0.0080   20.8650 N   0  0  0  0  0  0  0  0  0  0  0  0
    5.8830    0.4620   19.7340 C   0  0  0  0  0  0  0  0  0  0  0  0
    4.8990    1.4400   19.9200 C   0  0  0  0  0  0  0  0  0  0  0  0
    4.3380    2.0270   18.7790 C   0  0  0  0  0  0  0  0  0  0  0  0
    4.7770    1.6280   17.5100 C   0  0  0  0  0  0  0  0  0  0  0  0
    5.6850    0.6450   17.3170 N   0  0  0  0  0  0  0  0  0  0  0  0
    6.2370    0.0910   18.4170 C   0  0  0  0  0  0  0  0  0  0  0  0
    8.4090    0.1200   22.2700 N   0  0  0  0  0  0  0  0  0  0  0  0
    9.6650    0.6380   22.6520 C   0  0  0  0  0  0  0  0  0  0  0  0
   10.8590    0.0740   22.1700 C   0  0  0  0  0  0  0  0  0  0  0  0
   12.0920    0.6690   22.4860 C   0  0  0  0  0  0  0  0  0  0  0  0
   12.1280    1.8390   23.2650 C   0  0  0  0  0  0  0  0  0  0  0  0
   10.9320    2.4050   23.7390 C   0  0  0  0  0  0  0  0  0  0  0  0
   10.9490    3.8650   24.7600 S   0  0  0  0  0  0  0  0  0  0  0  0
   11.2020    5.3030   23.6410 C   0  0  0  0  0  0  0  0  0  0  0  0
   12.1590    5.0850   22.7150 F   0  0  0  0  0  0  0  0  0  0  0  0
   11.5970    6.3760   24.3590 F   0  0  0  0  0  0  0  0  0  0  0  0
   10.0640    5.6700   23.0190 F   0  0  0  0  0  0  0  0  0  0  0  0
    9.7050    1.7950   23.4430 C   0  0  0  0  0  0  0  0  0  0  0  0
  1  2  2  0
  2 10  1  0
  2  3  1  0
  3  4  1  0
  4  5  2  0
  4  9  1  0
  5  6  1  0
  6  7  2  0
  7  8  1  0
  8  9  2  0
 10 11  1  0
 11 12  2  0
 11 21  1  0
 12 13  1  0
 13 14  2  0
 14 15  1  0
 15 16  1  0
 15 21  2  0
 16 17  1  0
 17 18  1  0
 17 19  1  0
 17 20  1  0
M  END
