WPC2557_minimised.pdb
     RDKit          3D

 24 25  0  0  0  0  0  0  0  0999 V2000
    7.1980    4.0860   21.9800 C   0  0  0  0  0  0  0  0  0  0  0  0
    8.4940    4.2440   22.2620 C   0  0  0  0  0  0  0  0  0  0  0  0
    9.1440    5.5310   22.7310 C   0  0  0  0  0  0  0  0  0  0  0  0
   10.0320    5.0490   24.2710 S   0  0  0  0  0  0  0  0  0  0  0  0
   11.5070    4.2530   23.6280 C   0  0  0  0  0  0  0  0  0  0  0  0
   12.5680    4.9640   22.5550 S   0  0  0  0  0  0  0  0  0  0  0  0
   11.6490    3.0110   24.2070 N   0  0  0  0  0  0  0  0  0  0  0  0
   12.5720    1.9860   23.6960 C   0  0  0  0  0  0  0  0  0  0  0  0
   11.9060    0.8230   22.9820 C   0  0  0  0  0  0  0  0  0  0  0  0
   12.7290   -0.1550   22.3970 C   0  0  0  0  0  0  0  0  0  0  0  0
   12.1630   -1.2610   21.7490 C   0  0  0  0  0  0  0  0  0  0  0  0
   10.7690   -1.3840   21.6640 C   0  0  0  0  0  0  0  0  0  0  0  0
    9.9440   -0.3950   22.2130 C   0  0  0  0  0  0  0  0  0  0  0  0
    8.5540   -0.4250   21.9800 N   0  0  0  0  0  0  0  0  0  0  0  0
    8.0010   -0.0950   20.7750 C   0  0  0  0  0  0  0  0  0  0  0  0
    8.6590    0.1440   19.7850 O   0  0  0  0  0  0  0  0  0  0  0  0
    6.6350   -0.0120   20.7720 N   0  0  0  0  0  0  0  0  0  0  0  0
    5.8840    0.5180   19.6930 C   0  0  0  0  0  0  0  0  0  0  0  0
    4.9320    1.5140   19.9450 C   0  0  0  0  0  0  0  0  0  0  0  0
    4.3460    2.1460   18.8410 C   0  0  0  0  0  0  0  0  0  0  0  0
    4.7340    1.7810   17.5430 C   0  0  0  0  0  0  0  0  0  0  0  0
    5.6040    0.7780   17.2900 N   0  0  0  0  0  0  0  0  0  0  0  0
    6.1720    0.1740   18.3530 C   0  0  0  0  0  0  0  0  0  0  0  0
   10.5070    0.6980   22.8840 C   0  0  0  0  0  0  0  0  0  0  0  0
  1  2  2  0
  2  3  1  0
  3  4  1  0
  4  5  1  0
  5  6  2  0
  5  7  1  0
  7  8  1  0
  8  9  1  0
  9 24  2  0
  9 10  1  0
 10 11  2  0
 11 12  1  0
 12 13  2  0
 13 14  1  0
 13 24  1  0
 14 15  1  0
 15 16  2  0
 15 17  1  0
 17 18  1  0
 18 19  2  0
 18 23  1  0
 19 20  1  0
 20 21  2  0
 21 22  1  0
 22 23  2  0
M  END
