WPC2624_minimised.pdb
     RDKit          3D

 24 25  0  0  0  0  0  0  0  0999 V2000
    8.6010    5.2440   22.4380 C   0  0  0  0  0  0  0  0  0  0  0  0
    9.8260    5.7580   23.1780 C   0  0  0  0  0  0  0  0  0  0  0  0
    9.8520    6.8940   23.6000 O   0  0  0  0  0  0  0  0  0  0  0  0
   11.0020    4.8920   23.4350 C   0  0  0  0  0  0  0  0  0  0  0  0
   11.2170    3.6480   22.9690 C   0  0  0  0  0  0  0  0  0  0  0  0
   10.4020    3.0170   22.1300 O   0  0  0  0  0  0  0  0  0  0  0  0
   12.4910    2.8970   23.2700 C   0  0  0  0  0  0  0  0  0  0  0  0
   12.2710    1.6160   24.1080 C   0  0  0  0  0  0  0  0  0  0  0  0
   11.7240    0.4740   23.2780 C   0  0  0  0  0  0  0  0  0  0  0  0
   12.5960   -0.3260   22.5200 C   0  0  0  0  0  0  0  0  0  0  0  0
   12.0840   -1.3420   21.7020 C   0  0  0  0  0  0  0  0  0  0  0  0
   10.6970   -1.5250   21.6030 C   0  0  0  0  0  0  0  0  0  0  0  0
    9.8250   -0.6920   22.3160 C   0  0  0  0  0  0  0  0  0  0  0  0
    8.4510   -0.6870   22.0070 N   0  0  0  0  0  0  0  0  0  0  0  0
    7.9650   -0.2130   20.8180 C   0  0  0  0  0  0  0  0  0  0  0  0
    8.6690    0.1340   19.8900 O   0  0  0  0  0  0  0  0  0  0  0  0
    6.6010   -0.1310   20.7560 N   0  0  0  0  0  0  0  0  0  0  0  0
    5.8930    0.4490   19.6750 C   0  0  0  0  0  0  0  0  0  0  0  0
    4.9420    1.4460   19.9290 C   0  0  0  0  0  0  0  0  0  0  0  0
    4.3780    2.1010   18.8270 C   0  0  0  0  0  0  0  0  0  0  0  0
    4.7890    1.7600   17.5300 C   0  0  0  0  0  0  0  0  0  0  0  0
    5.6660    0.7640   17.2740 N   0  0  0  0  0  0  0  0  0  0  0  0
    6.2120    0.1370   18.3350 C   0  0  0  0  0  0  0  0  0  0  0  0
   10.3380    0.2720   23.1890 C   0  0  0  0  0  0  0  0  0  0  0  0
  1  2  1  0
  2  3  2  0
  2  4  1  0
  4  5  2  0
  5  6  1  0
  5  7  1  0
  7  8  1  0
  8  9  1  0
  9 24  2  0
  9 10  1  0
 10 11  2  0
 11 12  1  0
 12 13  2  0
 13 14  1  0
 13 24  1  0
 14 15  1  0
 15 16  2  0
 15 17  1  0
 17 18  1  0
 18 19  2  0
 18 23  1  0
 19 20  1  0
 20 21  2  0
 21 22  1  0
 22 23  2  0
M  END
