WPC2370_minimised.pdb
     RDKit          3D

 23 25  0  0  0  0  0  0  0  0999 V2000
    8.6140    0.1790   19.8370 O   0  0  0  0  0  0  0  0  0  0  0  0
    7.8380   -0.0550   20.7410 C   0  0  0  0  0  0  0  0  0  0  0  0
    6.4990    0.1990   20.6510 N   0  0  0  0  0  0  0  0  0  0  0  0
    5.8330    0.7590   19.5360 C   0  0  0  0  0  0  0  0  0  0  0  0
    4.8360    1.7170   19.7470 C   0  0  0  0  0  0  0  0  0  0  0  0
    4.2630    2.3150   18.6180 C   0  0  0  0  0  0  0  0  0  0  0  0
    4.7100    1.9560   17.3380 C   0  0  0  0  0  0  0  0  0  0  0  0
    5.6310    0.9890   17.1240 N   0  0  0  0  0  0  0  0  0  0  0  0
    6.1880    0.4200   18.2120 C   0  0  0  0  0  0  0  0  0  0  0  0
    8.1840   -0.6160   21.9370 N   0  0  0  0  0  0  0  0  0  0  0  0
    9.4790   -1.0400   22.3010 C   0  0  0  0  0  0  0  0  0  0  0  0
    9.6550   -2.3210   22.8440 C   0  0  0  0  0  0  0  0  0  0  0  0
   10.9430   -2.7670   23.1690 C   0  0  0  0  0  0  0  0  0  0  0  0
   12.0450   -1.9230   22.9680 C   0  0  0  0  0  0  0  0  0  0  0  0
   11.8730   -0.6100   22.5010 C   0  0  0  0  0  0  0  0  0  0  0  0
   13.3090    0.4610   22.3720 S   0  0  0  0  0  0  0  0  0  0  0  0
   12.7800    2.0920   22.9190 C   0  0  0  0  0  0  0  0  0  0  0  0
   13.6560    3.1730   22.7300 C   0  0  0  0  0  0  0  0  0  0  0  0
   13.2590    4.4730   23.0770 C   0  0  0  0  0  0  0  0  0  0  0  0
   11.9830    4.6340   23.6350 C   0  0  0  0  0  0  0  0  0  0  0  0
   11.1770    3.5000   23.8250 C   0  0  0  0  0  0  0  0  0  0  0  0
   11.5770    2.2590   23.4980 N   0  0  0  0  0  0  0  0  0  0  0  0
   10.5860   -0.1910   22.1250 C   0  0  0  0  0  0  0  0  0  0  0  0
  1  2  2  0
  2  3  1  0
  2 10  1  0
  3  4  1  0
  4  5  2  0
  4  9  1  0
  5  6  1  0
  6  7  2  0
  7  8  1  0
  8  9  2  0
 10 11  1  0
 11 23  1  0
 11 12  2  0
 12 13  1  0
 13 14  2  0
 14 15  1  0
 15 16  1  0
 15 23  2  0
 16 17  1  0
 17 18  2  0
 17 22  1  0
 18 19  1  0
 19 20  2  0
 20 21  1  0
 21 22  2  0
M  END
