WPC2151_minimised.pdb
     RDKit          3D

 22 24  0  0  0  0  0  0  0  0999 V2000
    8.4460   -0.1010   19.6070 O   0  0  0  0  0  0  0  0  0  0  0  0
    7.7290   -0.2030   20.5820 C   0  0  0  0  0  0  0  0  0  0  0  0
    6.3700   -0.0710   20.5220 N   0  0  0  0  0  0  0  0  0  0  0  0
    5.6780    0.5150   19.4380 C   0  0  0  0  0  0  0  0  0  0  0  0
    4.7400    1.5210   19.7030 C   0  0  0  0  0  0  0  0  0  0  0  0
    4.1890    2.2000   18.6100 C   0  0  0  0  0  0  0  0  0  0  0  0
    4.6080    1.8780   17.3110 C   0  0  0  0  0  0  0  0  0  0  0  0
    5.4770    0.8770   17.0460 N   0  0  0  0  0  0  0  0  0  0  0  0
    6.0010    0.2180   18.0970 C   0  0  0  0  0  0  0  0  0  0  0  0
    8.1910   -0.3840   21.8530 N   0  0  0  0  0  0  0  0  0  0  0  0
    9.5350   -0.1850   22.2180 C   0  0  0  0  0  0  0  0  0  0  0  0
   10.5550   -0.9690   21.6620 C   0  0  0  0  0  0  0  0  0  0  0  0
   11.8990   -0.6810   21.9410 C   0  0  0  0  0  0  0  0  0  0  0  0
   12.2160    0.3830   22.8010 C   0  0  0  0  0  0  0  0  0  0  0  0
   11.1900    1.1440   23.3900 C   0  0  0  0  0  0  0  0  0  0  0  0
   11.5220    2.1870   24.4330 C   0  0  0  0  0  0  0  0  0  0  0  0
   11.7290    3.5570   23.9530 N   0  0  0  0  0  0  0  0  0  0  0  0
   12.8890    4.0750   23.4200 C   0  0  0  0  0  0  0  0  0  0  0  0
   12.7030    5.4300   23.3550 C   0  0  0  0  0  0  0  0  0  0  0  0
   11.4560    5.7650   23.8230 N   0  0  0  0  0  0  0  0  0  0  0  0
   10.8660    4.6210   24.1180 C   0  0  0  0  0  0  0  0  0  0  0  0
    9.8500    0.8630   23.0900 C   0  0  0  0  0  0  0  0  0  0  0  0
  1  2  2  0
  2  3  1  0
  2 10  1  0
  3  4  1  0
  4  5  2  0
  4  9  1  0
  5  6  1  0
  6  7  2  0
  7  8  1  0
  8  9  2  0
 10 11  1  0
 11 22  1  0
 11 12  2  0
 12 13  1  0
 13 14  2  0
 14 15  1  0
 15 16  1  0
 15 22  2  0
 16 17  1  0
 17 18  1  0
 17 21  1  0
 18 19  2  0
 19 20  1  0
 20 21  2  0
M  END
