WPC2041_minimised.pdb
     RDKit          3D

 22 23  0  0  0  0  0  0  0  0999 V2000
   13.4470    5.2280   22.3450 C   0  0  0  0  0  0  0  0  0  0  0  0
   12.7440    4.8550   23.5860 N   0  0  0  0  0  0  0  0  0  0  0  0
   12.2250    6.0270   24.3240 C   0  0  0  0  0  0  0  0  0  0  0  0
   11.7120    3.8200   23.3380 C   0  0  0  0  0  0  0  0  0  0  0  0
   11.4520    3.0350   24.6300 C   0  0  0  0  0  0  0  0  0  0  0  0
    9.8730    2.1260   24.6690 S   0  0  0  0  0  0  0  0  0  0  0  0
   10.0310    0.7650   23.5470 C   0  0  0  0  0  0  0  0  0  0  0  0
   11.2490    0.1380   23.2280 C   0  0  0  0  0  0  0  0  0  0  0  0
   11.2600   -0.9550   22.3410 C   0  0  0  0  0  0  0  0  0  0  0  0
   10.0560   -1.4030   21.7710 C   0  0  0  0  0  0  0  0  0  0  0  0
    8.8530   -0.7630   22.0930 C   0  0  0  0  0  0  0  0  0  0  0  0
    7.6460   -1.0660   21.4540 N   0  0  0  0  0  0  0  0  0  0  0  0
    7.3680   -0.5840   20.2120 C   0  0  0  0  0  0  0  0  0  0  0  0
    8.2060   -0.3100   19.3750 O   0  0  0  0  0  0  0  0  0  0  0  0
    6.0320   -0.3440   20.0510 N   0  0  0  0  0  0  0  0  0  0  0  0
    5.4820    0.4560   19.0260 C   0  0  0  0  0  0  0  0  0  0  0  0
    4.5410    1.4420   19.3460 C   0  0  0  0  0  0  0  0  0  0  0  0
    4.1170    2.2930   18.3160 C   0  0  0  0  0  0  0  0  0  0  0  0
    4.6680    2.1560   17.0340 C   0  0  0  0  0  0  0  0  0  0  0  0
    5.5600    1.1910   16.7160 N   0  0  0  0  0  0  0  0  0  0  0  0
    5.9500    0.3630   17.7010 C   0  0  0  0  0  0  0  0  0  0  0  0
    8.8420    0.3080   22.9840 C   0  0  0  0  0  0  0  0  0  0  0  0
  1  2  1  0
  2  3  1  0
  2  4  1  0
  4  5  1  0
  5  6  1  0
  6  7  1  0
  7 22  2  0
  7  8  1  0
  8  9  2  0
  9 10  1  0
 10 11  2  0
 11 12  1  0
 11 22  1  0
 12 13  1  0
 13 14  2  0
 13 15  1  0
 15 16  1  0
 16 17  2  0
 16 21  1  0
 17 18  1  0
 18 19  2  0
 19 20  1  0
 20 21  2  0
M  END
