WPC2602_minimised.pdb
     RDKit          3D

 20 21  0  0  0  0  0  0  0  0999 V2000
   10.2850    5.5960   23.3650 C   0  0  0  0  0  0  0  0  0  0  0  0
   11.3790    4.5180   23.2280 C   0  0  0  0  0  0  0  0  0  0  0  0
   12.8100    5.0890   23.2870 C   0  0  0  0  0  0  0  0  0  0  0  0
   11.1520    3.2800   24.5580 S   0  0  0  0  0  0  0  0  0  0  0  0
   11.0590    1.7730   23.6290 C   0  0  0  0  0  0  0  0  0  0  0  0
   12.2150    1.1310   23.1580 C   0  0  0  0  0  0  0  0  0  0  0  0
   12.0980   -0.0100   22.3440 C   0  0  0  0  0  0  0  0  0  0  0  0
   10.8250   -0.5020   22.0040 C   0  0  0  0  0  0  0  0  0  0  0  0
    9.6730    0.1460   22.4810 C   0  0  0  0  0  0  0  0  0  0  0  0
    8.3840   -0.2410   22.0670 N   0  0  0  0  0  0  0  0  0  0  0  0
    7.9110   -0.0290   20.8040 C   0  0  0  0  0  0  0  0  0  0  0  0
    8.6170    0.2230   19.8510 O   0  0  0  0  0  0  0  0  0  0  0  0
    6.5460   -0.0460   20.7140 N   0  0  0  0  0  0  0  0  0  0  0  0
    5.8300    0.4860   19.6150 C   0  0  0  0  0  0  0  0  0  0  0  0
    4.8780    1.4870   19.8440 C   0  0  0  0  0  0  0  0  0  0  0  0
    4.3130    2.1180   18.7290 C   0  0  0  0  0  0  0  0  0  0  0  0
    4.7230    1.7450   17.4410 C   0  0  0  0  0  0  0  0  0  0  0  0
    5.6050    0.7470   17.2090 N   0  0  0  0  0  0  0  0  0  0  0  0
    6.1550    0.1460   18.2830 C   0  0  0  0  0  0  0  0  0  0  0  0
    9.7940    1.2770   23.2970 C   0  0  0  0  0  0  0  0  0  0  0  0
  1  2  1  0
  2  3  1  0
  2  4  1  0
  4  5  1  0
  5 20  2  0
  5  6  1  0
  6  7  2  0
  7  8  1  0
  8  9  2  0
  9 10  1  0
  9 20  1  0
 10 11  1  0
 11 12  2  0
 11 13  1  0
 13 14  1  0
 14 15  2  0
 14 19  1  0
 15 16  1  0
 16 17  2  0
 17 18  1  0
 18 19  2  0
M  END
