WPC2111_minimised.pdb
     RDKit          3D

 23 24  0  0  0  0  0  0  0  0999 V2000
    8.2070    5.4580   22.1180 C   0  0  0  0  0  0  0  0  0  0  0  0
    9.1660    4.5980   22.8090 N   0  0  0  0  0  0  0  0  0  0  0  0
   10.1460    5.0950   23.6320 C   0  0  0  0  0  0  0  0  0  0  0  0
   10.1660    6.2500   24.0080 O   0  0  0  0  0  0  0  0  0  0  0  0
   11.2130    4.0930   24.0340 C   0  0  0  0  0  0  0  0  0  0  0  0
   12.0360    3.5880   22.8330 C   0  0  0  0  0  0  0  0  0  0  0  0
   13.1270    2.2040   23.3480 S   0  0  0  0  0  0  0  0  0  0  0  0
   12.2960    0.7010   22.8930 C   0  0  0  0  0  0  0  0  0  0  0  0
   13.0790   -0.4310   22.6350 C   0  0  0  0  0  0  0  0  0  0  0  0
   12.4680   -1.6600   22.3430 C   0  0  0  0  0  0  0  0  0  0  0  0
   11.0700   -1.7430   22.2470 C   0  0  0  0  0  0  0  0  0  0  0  0
   10.2900   -0.5960   22.4470 C   0  0  0  0  0  0  0  0  0  0  0  0
    8.9030   -0.6280   22.1980 N   0  0  0  0  0  0  0  0  0  0  0  0
    8.3250    0.0450   21.1590 C   0  0  0  0  0  0  0  0  0  0  0  0
    8.9470    0.7760   20.4160 O   0  0  0  0  0  0  0  0  0  0  0  0
    6.9860   -0.1760   20.9960 N   0  0  0  0  0  0  0  0  0  0  0  0
    6.2290    0.3660   19.9270 C   0  0  0  0  0  0  0  0  0  0  0  0
    5.2450    1.3290   20.1810 C   0  0  0  0  0  0  0  0  0  0  0  0
    4.6340    1.9410   19.0770 C   0  0  0  0  0  0  0  0  0  0  0  0
    5.0180    1.5760   17.7770 C   0  0  0  0  0  0  0  0  0  0  0  0
    5.9340    0.6150   17.5240 N   0  0  0  0  0  0  0  0  0  0  0  0
    6.5430    0.0500   18.5870 C   0  0  0  0  0  0  0  0  0  0  0  0
   10.9000    0.6170   22.7940 C   0  0  0  0  0  0  0  0  0  0  0  0
  1  2  1  0
  2  3  1  0
  3  4  2  0
  3  5  1  0
  5  6  1  0
  6  7  1  0
  7  8  1  0
  8 23  2  0
  8  9  1  0
  9 10  2  0
 10 11  1  0
 11 12  2  0
 12 13  1  0
 12 23  1  0
 13 14  1  0
 14 15  2  0
 14 16  1  0
 16 17  1  0
 17 18  2  0
 17 22  1  0
 18 19  1  0
 19 20  2  0
 20 21  1  0
 21 22  2  0
M  END
