WPC2703_minimised.pdb
     RDKit          3D

 23 24  0  0  1  0  0  0  0  0999 V2000
   13.5550   -1.6360   21.5040 C   0  0  0  0  0  0  0  0  0  0  0  0
   14.0520   -0.2570   21.9940 C   0  0  1  0  0  0  0  0  0  0  0  0
   14.7850    0.5200   20.9780 N   0  0  0  0  0  0  0  0  0  0  0  0
   15.5650   -0.1560   19.7180 S   0  0  0  0  0  0  0  0  0  0  0  0
   16.7020    1.0880   19.2110 C   0  0  0  0  0  0  0  0  0  0  0  0
   16.2940   -1.3060   20.1750 O   0  0  0  0  0  0  0  0  0  0  0  0
   14.5510   -0.3120   18.7130 O   0  0  0  0  0  0  0  0  0  0  0  0
   12.9200    0.6220   22.5490 C   0  0  0  0  0  0  0  0  0  0  0  0
   11.5490    0.2700   22.4640 C   0  0  0  0  0  0  0  0  0  0  0  0
   10.5470    1.1310   22.9440 C   0  0  0  0  0  0  0  0  0  0  0  0
   13.2500    1.8710   23.1090 C   0  0  0  0  0  0  0  0  0  0  0  0
   12.2460    2.7520   23.5460 C   0  0  0  0  0  0  0  0  0  0  0  0
    9.1810    0.8130   22.7440 N   0  0  0  0  0  0  0  0  0  0  0  0
   10.8960    2.3760   23.4810 C   0  0  0  0  0  0  0  0  0  0  0  0
    8.5660    0.9400   21.5280 C   0  0  0  0  0  0  0  0  0  0  0  0
    9.1710    1.2940   20.5430 O   0  0  0  0  0  0  0  0  0  0  0  0
    7.2290    0.6350   21.4610 N   0  0  0  0  0  0  0  0  0  0  0  0
    6.4450    0.8160   20.2870 C   0  0  0  0  0  0  0  0  0  0  0  0
    6.8050    0.2330   19.0480 C   0  0  0  0  0  0  0  0  0  0  0  0
    5.3650    1.7080   20.3180 C   0  0  0  0  0  0  0  0  0  0  0  0
    6.1650    0.4870   17.8830 N   0  0  0  0  0  0  0  0  0  0  0  0
    4.7190    1.9980   19.1080 C   0  0  0  0  0  0  0  0  0  0  0  0
    5.1620    1.3920   17.9220 C   0  0  0  0  0  0  0  0  0  0  0  0
  2  1  1  6
  2  3  1  0
  2  8  1  0
  3  4  1  0
  4  5  1  0
  4  6  2  0
  4  7  2  0
  8 11  2  0
  8  9  1  0
  9 10  2  0
 10 13  1  0
 10 14  1  0
 11 12  1  0
 12 14  2  0
 13 15  1  0
 15 16  2  0
 15 17  1  0
 17 18  1  0
 18 19  2  0
 18 20  1  0
 19 21  1  0
 20 22  2  0
 21 23  2  0
 22 23  1  0
M  END
