WPC2034_minimised.pdb
     RDKit          3D

 24 25  0  0  0  0  0  0  0  0999 V2000
   13.9370    5.1050   22.4140 C   0  0  0  0  0  0  0  0  0  0  0  0
   12.6800    4.2510   22.6560 C   0  0  0  0  0  0  0  0  0  0  0  0
   11.9480    4.6220   23.9610 C   0  0  0  0  0  0  0  0  0  0  0  0
   10.7660    3.7710   24.2560 N   0  0  0  0  0  0  0  0  0  0  0  0
    9.6150    3.8710   23.3230 C   0  0  0  0  0  0  0  0  0  0  0  0
    9.0670    5.3010   23.1270 C   0  0  0  0  0  0  0  0  0  0  0  0
    9.8780    6.0790   22.2660 O   0  0  0  0  0  0  0  0  0  0  0  0
   11.0510    2.3970   24.7450 C   0  0  0  0  0  0  0  0  0  0  0  0
   11.0140    1.2670   23.7230 C   0  0  0  0  0  0  0  0  0  0  0  0
   12.1930    0.7160   23.1860 C   0  0  0  0  0  0  0  0  0  0  0  0
   12.1250   -0.3250   22.2440 C   0  0  0  0  0  0  0  0  0  0  0  0
   10.8750   -0.8210   21.8380 C   0  0  0  0  0  0  0  0  0  0  0  0
    9.7010   -0.2920   22.3920 C   0  0  0  0  0  0  0  0  0  0  0  0
    8.4280   -0.6670   21.9240 N   0  0  0  0  0  0  0  0  0  0  0  0
    7.9420   -0.2730   20.7100 C   0  0  0  0  0  0  0  0  0  0  0  0
    8.6330    0.1540   19.8070 O   0  0  0  0  0  0  0  0  0  0  0  0
    6.5780   -0.3230   20.6210 N   0  0  0  0  0  0  0  0  0  0  0  0
    5.8540    0.2930   19.5730 C   0  0  0  0  0  0  0  0  0  0  0  0
    4.9180    1.2890   19.8760 C   0  0  0  0  0  0  0  0  0  0  0  0
    4.3490    1.9950   18.8080 C   0  0  0  0  0  0  0  0  0  0  0  0
    4.7400    1.6970   17.4930 C   0  0  0  0  0  0  0  0  0  0  0  0
    5.6160    0.7120   17.1920 N   0  0  0  0  0  0  0  0  0  0  0  0
    6.1690    0.0400   18.2210 C   0  0  0  0  0  0  0  0  0  0  0  0
    9.7750    0.7230   23.3490 C   0  0  0  0  0  0  0  0  0  0  0  0
  1  2  1  0
  2  3  1  0
  3  4  1  0
  4  5  1  0
  4  8  1  0
  5  6  1  0
  6  7  1  0
  8  9  1  0
  9 24  2  0
  9 10  1  0
 10 11  2  0
 11 12  1  0
 12 13  2  0
 13 14  1  0
 13 24  1  0
 14 15  1  0
 15 16  2  0
 15 17  1  0
 17 18  1  0
 18 19  2  0
 18 23  1  0
 19 20  1  0
 20 21  2  0
 21 22  1  0
 22 23  2  0
M  END
