WPE0009_minimised.pdb
     RDKit          3D

 30 32  0  0  0  0  0  0  0  0999 V2000
    6.7080   -3.7230   24.2730 C   0  0  0  0  0  0  0  0  0  0  0  0
    7.6860   -3.8890   23.0850 C   0  0  0  0  0  0  0  0  0  0  0  0
    7.2480   -5.0300   22.1350 C   0  0  0  0  0  0  0  0  0  0  0  0
    9.1050   -4.1860   23.6190 C   0  0  0  0  0  0  0  0  0  0  0  0
    7.8100   -2.6440   22.3520 O   0  0  0  0  0  0  0  0  0  0  0  0
    6.7670   -1.9650   21.7810 C   0  0  0  0  0  0  0  0  0  0  0  0
    5.6340   -2.4150   21.6960 O   0  0  0  0  0  0  0  0  0  0  0  0
    7.1720   -0.8290   21.0950 N   0  0  0  0  0  0  0  0  0  0  0  0
    8.4340   -0.2520   21.2010 C   0  0  0  0  0  0  0  0  0  0  0  0
    8.9540    0.2360   20.2110 O   0  0  0  0  0  0  0  0  0  0  0  0
    9.0720   -0.1400   22.4410 N   0  0  0  0  0  0  0  0  0  0  0  0
   10.4670    0.1280   22.4890 C   0  0  0  0  0  0  0  0  0  0  0  0
   11.3760   -0.8320   22.0080 C   0  0  0  0  0  0  0  0  0  0  0  0
   12.7570   -0.5790   22.0410 C   0  0  0  0  0  0  0  0  0  0  0  0
   13.2340    0.6320   22.5650 C   0  0  0  0  0  0  0  0  0  0  0  0
   12.3290    1.5990   23.0320 C   0  0  0  0  0  0  0  0  0  0  0  0
   10.9480    1.3480   22.9950 C   0  0  0  0  0  0  0  0  0  0  0  0
    6.3050   -0.2640   20.0980 C   0  0  0  0  0  0  0  0  0  0  0  0
    5.2850    0.6300   20.4660 C   0  0  0  0  0  0  0  0  0  0  0  0
    4.5810    1.2920   19.4470 C   0  0  0  0  0  0  0  0  0  0  0  0
    4.9040    1.0460   18.1050 C   0  0  0  0  0  0  0  0  0  0  0  0
    5.8520    0.1580   17.7370 N   0  0  0  0  0  0  0  0  0  0  0  0
    6.5430   -0.4600   18.7180 C   0  0  0  0  0  0  0  0  0  0  0  0
    8.4080   -0.0710   23.7040 C   0  0  0  0  0  0  0  0  0  0  0  0
    8.9610   -0.6970   24.8400 C   0  0  0  0  0  0  0  0  0  0  0  0
    8.3240   -0.5990   26.0900 C   0  0  0  0  0  0  0  0  0  0  0  0
    7.1290    0.1240   26.2100 C   0  0  0  0  0  0  0  0  0  0  0  0
    6.5050    0.2100   27.4030 F   0  0  0  0  0  0  0  0  0  0  0  0
    6.5820    0.7700   25.0920 C   0  0  0  0  0  0  0  0  0  0  0  0
    7.2300    0.6900   23.8470 C   0  0  0  0  0  0  0  0  0  0  0  0
  1  2  1  0
  2  5  1  0
  2  3  1  0
  2  4  1  0
  5  6  1  0
  6  8  1  0
  6  7  2  0
  8  9  1  0
  8 18  1  0
  9 11  1  0
  9 10  2  0
 11 12  1  0
 11 24  1  0
 12 13  2  0
 12 17  1  0
 13 14  1  0
 14 15  2  0
 15 16  1  0
 16 17  2  0
 18 19  2  0
 18 23  1  0
 19 20  1  0
 20 21  2  0
 21 22  1  0
 22 23  2  0
 24 25  2  0
 24 30  1  0
 25 26  1  0
 26 27  2  0
 27 28  1  0
 27 29  1  0
 29 30  2  0
M  END
