WPE0005_minimised.pdb
     RDKit          3D

 29 30  0  0  0  0  0  0  0  0999 V2000
   14.4920    4.7610   23.1960 N   0  0  0  0  0  0  0  0  0  0  0  0
   13.4730    4.2430   22.6790 C   0  0  0  0  0  0  0  0  0  0  0  0
   12.2700    4.8170   22.6650 N   0  0  0  0  0  0  0  0  0  0  0  0
   13.3860    2.9910   22.2050 N   0  0  0  0  0  0  0  0  0  0  0  0
   14.4300    1.9630   22.3340 C   0  0  0  0  0  0  0  0  0  0  0  0
   13.9650    0.7980   23.2240 C   0  0  0  0  0  0  0  0  0  0  0  0
   12.5720    0.3070   22.9140 C   0  0  0  0  0  0  0  0  0  0  0  0
   12.3870   -0.8050   22.0800 C   0  0  0  0  0  0  0  0  0  0  0  0
   11.0910   -1.2710   21.8360 C   0  0  0  0  0  0  0  0  0  0  0  0
    9.9910   -0.6070   22.3860 C   0  0  0  0  0  0  0  0  0  0  0  0
    8.7060   -1.0250   22.0230 N   0  0  0  0  0  0  0  0  0  0  0  0
    7.9940   -0.5290   20.9580 C   0  0  0  0  0  0  0  0  0  0  0  0
    8.4100    0.4580   20.3700 O   0  0  0  0  0  0  0  0  0  0  0  0
    6.8160   -1.1740   20.5690 N   0  0  0  0  0  0  0  0  0  0  0  0
    6.0150   -0.4150   19.6560 C   0  0  0  0  0  0  0  0  0  0  0  0
    5.2690    0.6800   20.1240 C   0  0  0  0  0  0  0  0  0  0  0  0
    4.6390    1.5070   19.1840 C   0  0  0  0  0  0  0  0  0  0  0  0
    4.7930    1.2370   17.8170 C   0  0  0  0  0  0  0  0  0  0  0  0
    5.4930    0.1770   17.3620 N   0  0  0  0  0  0  0  0  0  0  0  0
    6.0930   -0.6220   18.2670 C   0  0  0  0  0  0  0  0  0  0  0  0
   10.1680    0.4950   23.2300 C   0  0  0  0  0  0  0  0  0  0  0  0
   11.4650    0.9410   23.5100 C   0  0  0  0  0  0  0  0  0  0  0  0
    5.5010   -4.1790   23.3260 C   0  0  0  0  0  0  0  0  0  0  0  0
    6.8100   -4.3420   22.5200 C   0  0  0  0  0  0  0  0  0  0  0  0
    6.7220   -5.4980   21.4960 C   0  0  0  0  0  0  0  0  0  0  0  0
    7.9930   -4.5940   23.4810 C   0  0  0  0  0  0  0  0  0  0  0  0
    7.1310   -3.0910   21.8710 O   0  0  0  0  0  0  0  0  0  0  0  0
    6.3740   -2.4560   20.9220 C   0  0  0  0  0  0  0  0  0  0  0  0
    5.4500   -3.0130   20.3470 O   0  0  0  0  0  0  0  0  0  0  0  0
  1  2  2  0
  2  3  1  0
  2  4  1  0
  4  5  1  0
  5  6  1  0
  6  7  1  0
  7 22  2  0
  7  8  1  0
  8  9  2  0
  9 10  1  0
 10 11  1  0
 10 21  2  0
 11 12  1  0
 12 13  2  0
 12 14  1  0
 14 28  1  0
 14 15  1  0
 15 16  2  0
 15 20  1  0
 16 17  1  0
 17 18  2  0
 18 19  1  0
 19 20  2  0
 21 22  1  0
 23 24  1  0
 24 27  1  0
 24 25  1  0
 24 26  1  0
 27 28  1  0
 28 29  2  0
M  END
