WPE0001_minimised.pdb
     RDKit          3D

 28 29  0  0  0  0  0  0  0  0999 V2000
   14.0670   -1.4030   23.8700 C   0  0  0  0  0  0  0  0  0  0  0  0
   13.2930   -0.4230   22.9550 C   0  0  0  0  0  0  0  0  0  0  0  0
   13.8440    1.0130   23.0920 C   0  0  0  0  0  0  0  0  0  0  0  0
   13.5340   -0.8540   21.5660 C   0  0  0  0  0  0  0  0  0  0  0  0
   13.8130   -1.2040   20.5020 N   0  0  0  0  0  0  0  0  0  0  0  0
   11.8140   -0.4190   23.3790 C   0  0  0  0  0  0  0  0  0  0  0  0
   10.7450   -0.7380   22.5180 C   0  0  0  0  0  0  0  0  0  0  0  0
    9.4290   -0.7250   23.0060 C   0  0  0  0  0  0  0  0  0  0  0  0
   11.5120   -0.0750   24.7130 C   0  0  0  0  0  0  0  0  0  0  0  0
   10.1990   -0.0520   25.1970 C   0  0  0  0  0  0  0  0  0  0  0  0
    8.3610   -1.1400   22.2060 N   0  0  0  0  0  0  0  0  0  0  0  0
    9.1510   -0.3910   24.3370 C   0  0  0  0  0  0  0  0  0  0  0  0
    7.9710   -0.7010   20.9720 C   0  0  0  0  0  0  0  0  0  0  0  0
    8.5650    0.2020   20.4060 O   0  0  0  0  0  0  0  0  0  0  0  0
    6.8290   -1.2900   20.4350 N   0  0  0  0  0  0  0  0  0  0  0  0
    6.1080   -0.4600   19.5250 C   0  0  0  0  0  0  0  0  0  0  0  0
    6.1830   -0.6330   18.1310 C   0  0  0  0  0  0  0  0  0  0  0  0
    5.3760    0.6310   20.0220 C   0  0  0  0  0  0  0  0  0  0  0  0
    5.5880    0.1980   17.2490 N   0  0  0  0  0  0  0  0  0  0  0  0
    4.7460    1.4860   19.1060 C   0  0  0  0  0  0  0  0  0  0  0  0
    4.8880    1.2460   17.7330 C   0  0  0  0  0  0  0  0  0  0  0  0
    5.2730   -4.2090   23.0910 C   0  0  0  0  0  0  0  0  0  0  0  0
    6.5830   -4.4730   22.3150 C   0  0  0  0  0  0  0  0  0  0  0  0
    6.4430   -5.6290   21.3020 C   0  0  0  0  0  0  0  0  0  0  0  0
    7.7220   -4.7840   23.3110 C   0  0  0  0  0  0  0  0  0  0  0  0
    7.0060   -3.2590   21.6610 O   0  0  0  0  0  0  0  0  0  0  0  0
    6.3250   -2.5660   20.6980 C   0  0  0  0  0  0  0  0  0  0  0  0
    5.4150   -3.0630   20.0520 O   0  0  0  0  0  0  0  0  0  0  0  0
  1  2  1  0
  2  4  1  0
  2  3  1  0
  2  6  1  0
  4  5  3  0
  6  9  2  0
  6  7  1  0
  7  8  2  0
  8 11  1  0
  8 12  1  0
  9 10  1  0
 10 12  2  0
 11 13  1  0
 13 14  2  0
 13 15  1  0
 15 16  1  0
 15 27  1  0
 16 17  2  0
 16 18  1  0
 17 19  1  0
 18 20  2  0
 19 21  2  0
 20 21  1  0
 22 23  1  0
 23 26  1  0
 23 24  1  0
 23 25  1  0
 26 27  1  0
 27 28  2  0
M  END
