WPE0008_minimised.pdb
     RDKit          3D

 28 29  0  0  0  0  0  0  0  0999 V2000
   12.6220   -1.6030   23.5890 C   0  0  0  0  0  0  0  0  0  0  0  0
   12.8280   -0.2980   22.7750 C   0  0  0  0  0  0  0  0  0  0  0  0
   13.9680    0.4270   23.5260 C   0  0  0  0  0  0  0  0  0  0  0  0
   13.3480   -0.6790   21.4500 C   0  0  0  0  0  0  0  0  0  0  0  0
   13.8230   -1.0490   20.4650 N   0  0  0  0  0  0  0  0  0  0  0  0
   11.4390    0.4160   22.7040 C   0  0  0  0  0  0  0  0  0  0  0  0
   10.3740   -0.3630   22.1930 C   0  0  0  0  0  0  0  0  0  0  0  0
    9.0410   -0.0000   22.4020 C   0  0  0  0  0  0  0  0  0  0  0  0
   11.1000    1.6950   23.2600 C   0  0  0  0  0  0  0  0  0  0  0  0
    9.7520    1.9690   23.5750 C   0  0  0  0  0  0  0  0  0  0  0  0
    7.9820   -0.6910   21.8000 N   0  0  0  0  0  0  0  0  0  0  0  0
    8.7270    1.1270   23.1530 C   0  0  0  0  0  0  0  0  0  0  0  0
    7.6730   -0.4610   20.4940 C   0  0  0  0  0  0  0  0  0  0  0  0
    8.4840   -0.1840   19.6310 O   0  0  0  0  0  0  0  0  0  0  0  0
    6.3210   -0.4320   20.3030 N   0  0  0  0  0  0  0  0  0  0  0  0
    5.6990    0.2940   19.2670 C   0  0  0  0  0  0  0  0  0  0  0  0
    6.0920    0.1420   17.9240 C   0  0  0  0  0  0  0  0  0  0  0  0
    4.7670    1.2870   19.5960 C   0  0  0  0  0  0  0  0  0  0  0  0
    5.6140    0.9080   16.9250 N   0  0  0  0  0  0  0  0  0  0  0  0
    4.2720    2.0850   18.5570 C   0  0  0  0  0  0  0  0  0  0  0  0
    4.7330    1.8810   17.2490 C   0  0  0  0  0  0  0  0  0  0  0  0
    8.9300    5.8690   22.0900 N   0  0  0  0  0  0  0  0  0  0  0  0
    9.9100    5.8200   23.0120 C   0  0  0  0  0  0  0  0  0  0  0  0
   10.0090    6.6770   23.8500 O   0  0  0  0  0  0  0  0  0  0  0  0
   10.6850    4.7200   22.8950 N   0  0  0  0  0  0  0  0  0  0  0  0
   11.6110    4.2290   23.7710 C   0  0  0  0  0  0  0  0  0  0  0  0
   12.0020    4.8510   24.7360 O   0  0  0  0  0  0  0  0  0  0  0  0
   12.1220    2.8100   23.5040 C   0  0  0  0  0  0  0  0  0  0  0  0
  1  2  1  0
  2  6  1  0
  2  3  1  0
  2  4  1  0
  4  5  3  0
  6  9  2  0
  6  7  1  0
  7  8  2  0
  8 11  1  0
  8 12  1  0
  9 28  1  0
  9 10  1  0
 10 12  2  0
 11 13  1  0
 13 14  2  0
 13 15  1  0
 15 16  1  0
 16 17  2  0
 16 18  1  0
 17 19  1  0
 18 20  2  0
 19 21  2  0
 20 21  1  0
 22 23  1  0
 23 24  2  0
 23 25  1  0
 25 26  1  0
 26 27  2  0
 26 28  1  0
M  END
