WPE0006_minimised.pdb
     RDKit          3D

 30 32  0  0  0  0  0  0  0  0999 V2000
   14.4640    4.7340   23.2080 N   0  0  0  0  0  0  0  0  0  0  0  0
   13.4410    4.2100   22.7060 C   0  0  0  0  0  0  0  0  0  0  0  0
   12.2440    4.7970   22.6710 N   0  0  0  0  0  0  0  0  0  0  0  0
   13.3390    2.9440   22.2720 N   0  0  0  0  0  0  0  0  0  0  0  0
   14.3840    1.9160   22.3860 C   0  0  0  0  0  0  0  0  0  0  0  0
   13.9180    0.7140   23.2280 C   0  0  0  0  0  0  0  0  0  0  0  0
   12.5000    0.2720   22.9420 C   0  0  0  0  0  0  0  0  0  0  0  0
   12.2440   -0.7670   22.0340 C   0  0  0  0  0  0  0  0  0  0  0  0
   10.9220   -1.1550   21.7860 C   0  0  0  0  0  0  0  0  0  0  0  0
    9.8660   -0.5010   22.4280 C   0  0  0  0  0  0  0  0  0  0  0  0
    8.5470   -0.7920   22.0640 N   0  0  0  0  0  0  0  0  0  0  0  0
    7.9400   -0.3090   20.9350 C   0  0  0  0  0  0  0  0  0  0  0  0
    8.5540    0.3040   20.0800 O   0  0  0  0  0  0  0  0  0  0  0  0
    6.5720   -0.5560   20.8650 N   0  0  0  0  0  0  0  0  0  0  0  0
    5.8020    0.0380   19.8240 C   0  0  0  0  0  0  0  0  0  0  0  0
    4.8520    1.0330   20.1110 C   0  0  0  0  0  0  0  0  0  0  0  0
    4.2860    1.7350   19.0370 C   0  0  0  0  0  0  0  0  0  0  0  0
    4.6810    1.4320   17.7250 C   0  0  0  0  0  0  0  0  0  0  0  0
    5.5620    0.4500   17.4330 N   0  0  0  0  0  0  0  0  0  0  0  0
    6.1200   -0.2090   18.4700 C   0  0  0  0  0  0  0  0  0  0  0  0
   10.1170    0.5100   23.3620 C   0  0  0  0  0  0  0  0  0  0  0  0
   11.4370    0.8900   23.6270 C   0  0  0  0  0  0  0  0  0  0  0  0
    5.0440   -4.6940   25.5440 C   0  0  0  0  0  0  0  0  0  0  0  0
    4.2590   -3.6690   24.9020 O   0  0  0  0  0  0  0  0  0  0  0  0
    4.7980   -2.9150   23.8920 C   0  0  0  0  0  0  0  0  0  0  0  0
    5.2660   -3.5200   22.7150 C   0  0  0  0  0  0  0  0  0  0  0  0
    5.8120   -2.7270   21.6900 C   0  0  0  0  0  0  0  0  0  0  0  0
    5.8790   -1.3300   21.8370 C   0  0  0  0  0  0  0  0  0  0  0  0
    5.4110   -0.7280   23.0190 C   0  0  0  0  0  0  0  0  0  0  0  0
    4.8710   -1.5230   24.0460 C   0  0  0  0  0  0  0  0  0  0  0  0
  1  2  2  0
  2  3  1  0
  2  4  1  0
  4  5  1  0
  5  6  1  0
  6  7  1  0
  7 22  2  0
  7  8  1  0
  8  9  2  0
  9 10  1  0
 10 11  1  0
 10 21  2  0
 11 12  1  0
 12 13  2  0
 12 14  1  0
 14 28  1  0
 14 15  1  0
 15 16  2  0
 15 20  1  0
 16 17  1  0
 17 18  2  0
 18 19  1  0
 19 20  2  0
 21 22  1  0
 23 24  1  0
 24 25  1  0
 25 26  2  0
 25 30  1  0
 26 27  1  0
 27 28  2  0
 28 29  1  0
 29 30  2  0
M  END
