WPE0004_minimised.pdb
     RDKit          3D

 28 29  0  0  0  0  0  0  0  0999 V2000
   12.8380   -1.6870   23.6660 C   0  0  0  0  0  0  0  0  0  0  0  0
   12.9950   -0.4340   22.7750 C   0  0  0  0  0  0  0  0  0  0  0  0
   13.9460    0.5110   23.5390 C   0  0  0  0  0  0  0  0  0  0  0  0
   13.6300   -0.8280   21.5060 C   0  0  0  0  0  0  0  0  0  0  0  0
   14.1660   -1.1810   20.5470 N   0  0  0  0  0  0  0  0  0  0  0  0
   11.6050    0.1850   22.5180 C   0  0  0  0  0  0  0  0  0  0  0  0
   10.5810   -0.6330   21.9980 C   0  0  0  0  0  0  0  0  0  0  0  0
    9.2830   -0.1390   21.8740 C   0  0  0  0  0  0  0  0  0  0  0  0
   11.2860    1.5260   22.8550 C   0  0  0  0  0  0  0  0  0  0  0  0
    9.9800    2.0350   22.6830 C   0  0  0  0  0  0  0  0  0  0  0  0
    8.2270   -0.9230   21.4110 N   0  0  0  0  0  0  0  0  0  0  0  0
    8.9850    1.1820   22.2020 C   0  0  0  0  0  0  0  0  0  0  0  0
    7.7830   -0.7090   20.1490 C   0  0  0  0  0  0  0  0  0  0  0  0
    8.5060   -0.5660   19.1820 O   0  0  0  0  0  0  0  0  0  0  0  0
    6.4260   -0.5450   20.1240 N   0  0  0  0  0  0  0  0  0  0  0  0
    5.7490    0.2260   19.1550 C   0  0  0  0  0  0  0  0  0  0  0  0
    6.0360    0.1010   17.7830 C   0  0  0  0  0  0  0  0  0  0  0  0
    4.8690    1.2320   19.5750 C   0  0  0  0  0  0  0  0  0  0  0  0
    5.5210    0.9150   16.8450 N   0  0  0  0  0  0  0  0  0  0  0  0
    4.3190    2.0690   18.5950 C   0  0  0  0  0  0  0  0  0  0  0  0
    4.6900    1.8990   17.2530 C   0  0  0  0  0  0  0  0  0  0  0  0
   13.0620    5.7910   24.0740 N   0  0  0  0  0  0  0  0  0  0  0  0
   12.7610    5.3910   22.8260 C   0  0  0  0  0  0  0  0  0  0  0  0
   13.4780    5.6520   21.8950 O   0  0  0  0  0  0  0  0  0  0  0  0
   11.6010    4.7230   22.6800 N   0  0  0  0  0  0  0  0  0  0  0  0
   10.6290    4.3830   23.5740 C   0  0  0  0  0  0  0  0  0  0  0  0
   10.6230    4.7810   24.7250 O   0  0  0  0  0  0  0  0  0  0  0  0
    9.5460    3.4600   23.0320 C   0  0  0  0  0  0  0  0  0  0  0  0
  1  2  1  0
  2  6  1  0
  2  3  1  0
  2  4  1  0
  4  5  3  0
  6  9  2  0
  6  7  1  0
  7  8  2  0
  8 11  1  0
  8 12  1  0
  9 10  1  0
 10 28  1  0
 10 12  2  0
 11 13  1  0
 13 14  2  0
 13 15  1  0
 15 16  1  0
 16 17  2  0
 16 18  1  0
 17 19  1  0
 18 20  2  0
 19 21  2  0
 20 21  1  0
 22 23  1  0
 23 24  2  0
 23 25  1  0
 25 26  1  0
 26 27  2  0
 26 28  1  0
M  END
