x0336
     RDKit          3D

 15 15  0  0  0  0  0  0  0  0999 V2000
    5.4970  -30.1130   10.7300 C   0  0  0  0  0  0  0  0  0  0  0  0
    4.9630  -29.9150    9.3100 C   0  0  0  0  0  0  0  0  0  0  0  0
    4.6130  -30.8740    8.7110 O   0  0  0  0  0  0  0  0  0  0  0  0
    4.8400  -28.6040    8.6790 N   0  0  0  0  0  0  0  0  0  0  0  0
    5.2700  -27.3880    9.3580 C   0  0  0  0  0  0  0  0  0  0  0  0
    4.3240  -26.2020    9.3220 C   0  0  0  0  0  0  0  0  0  0  0  0
    3.8780  -25.6290   10.5030 C   0  0  0  0  0  0  0  0  0  0  0  0
    3.0410  -24.5260   10.4510 C   0  0  0  0  0  0  0  0  0  0  0  0
    2.6680  -24.0000    9.2250 C   0  0  0  0  0  0  0  0  0  0  0  0
    3.1260  -24.5690    8.0590 C   0  0  0  0  0  0  0  0  0  0  0  0
    3.9550  -25.6640    8.1130 C   0  0  0  0  0  0  0  0  0  0  0  0
    1.5750  -22.5610    9.1020 S   0  0  2  0  0  0  0  0  0  0  0  0
    1.7560  -21.6460   10.2250 O   0  0  0  0  0  0  0  0  0  0  0  0
    0.1680  -22.9480    9.2410 O   0  0  0  0  0  0  0  0  0  0  0  0
    1.8410  -21.7220    7.6450 N   0  0  0  0  0  0  0  0  0  0  0  0
  1  2  1  0
  2  3  2  0
  2  4  1  0
  4  5  1  0
  5  6  1  0
  6  7  2  0
  7  8  1  0
  8  9  2  0
  9 10  1  0
  6 11  1  0
 10 11  2  0
  9 12  1  0
 12 13  2  0
 12 14  2  0
 12 15  1  6
M  END
