x0387
     RDKit          3D

 13 14  0  0  0  0  0  0  0  0999 V2000
    9.3130   -4.2870   27.7980 O   0  0  0  0  0  0  0  0  0  0  0  0
    9.1890   -4.8830   26.5300 C   0  0  2  0  0  0  0  0  0  0  0  0
   10.4280   -4.7330   25.8090 C   0  0  0  0  0  0  0  0  0  0  0  0
   10.6670   -3.3240   25.2560 C   0  0  0  0  0  0  0  0  0  0  0  0
    9.5580   -2.7470   24.5350 N   0  0  0  0  0  0  0  0  0  0  0  0
    9.7170   -1.5590   24.2350 C   0  0  0  0  0  0  0  0  0  0  0  0
   11.0930   -1.2030   23.6570 C   0  0  0  0  0  0  0  0  0  0  0  0
   12.0010   -0.0950   24.1850 C   0  0  0  0  0  0  0  0  0  0  0  0
   13.2120   -0.0450   23.4170 C   0  0  0  0  0  0  0  0  0  0  0  0
   13.1760   -1.1740   22.2600 S   0  0  0  0  0  0  0  0  0  0  0  0
   11.7330   -1.8440   22.5480 C   0  0  0  0  0  0  0  0  0  0  0  0
    8.3450   -2.8940   25.3190 C   0  0  0  0  0  0  0  0  0  0  0  0
    8.0880   -4.3300   25.7850 C   0  0  0  0  0  0  0  0  0  0  0  0
  2  1  1  1
  2  3  1  0
  3  4  1  0
  4  5  1  0
  5  6  1  0
  6  7  1  0
  7  8  1  0
  8  9  2  0
  9 10  1  0
  7 11  2  0
 10 11  1  0
  5 12  1  0
  2 13  1  0
 12 13  1  0
M  END
