x0397
     RDKit          3D

 15 16  0  0  0  0  0  0  0  0999 V2000
    8.3580   -1.4020   20.7910 C   0  0  0  0  0  0  0  0  0  0  0  0
    7.3970   -2.0760   19.9090 N   0  0  0  0  0  0  0  0  0  0  0  0
    7.3210   -1.6840   18.4900 C   0  0  0  0  0  0  0  0  0  0  0  0
    6.4820   -0.3910   18.3950 C   0  0  0  0  0  0  0  0  0  0  0  0
    5.5070    0.0100   19.3050 C   0  0  0  0  0  0  0  0  0  0  0  0
    5.0060    1.2050   18.8680 C   0  0  0  0  0  0  0  0  0  0  0  0
    3.9100    2.0250   19.5490 C   0  0  0  0  0  0  0  0  0  0  0  0
    5.6470    1.5140   17.7510 O   0  0  0  0  0  0  0  0  0  0  0  0
    6.5640    0.5560   17.4490 N   0  0  0  0  0  0  0  0  0  0  0  0
    6.5090   -3.1090   20.4480 C   0  0  0  0  0  0  0  0  0  0  0  0
    5.7350   -3.6470   19.7200 O   0  0  0  0  0  0  0  0  0  0  0  0
    6.5830   -3.4750   21.8710 N   0  0  0  0  0  0  0  0  0  0  0  0
    5.7040   -4.5130   22.4250 C   0  0  2  0  0  0  0  0  0  0  0  0
    6.3930   -5.5250   23.3450 C   0  0  0  0  0  0  0  0  0  0  0  0
    5.9700   -5.9370   21.9290 C   0  0  0  0  0  0  0  0  0  0  0  0
  1  2  1  0
  2  3  1  0
  3  4  1  0
  4  5  1  0
  5  6  2  0
  6  7  1  0
  6  8  1  0
  4  9  2  0
  8  9  1  0
  2 10  1  0
 10 11  2  0
 10 12  1  0
 13 12  1  6
 13 14  1  0
 13 15  1  0
 14 15  1  0
M  END
