x0708
     RDKit          3D

 17 18  0  0  0  0  0  0  0  0999 V2000
    7.0170   -4.4660   20.8940 N   0  0  0  0  0  0  0  0  0  0  0  0
    7.8210   -2.6720   19.4580 C   0  0  0  0  0  0  0  0  0  0  0  0
    5.7310   -3.7910   19.1700 O   0  0  0  0  0  0  0  0  0  0  0  0
    6.7590   -3.6740   19.8430 C   0  0  0  0  0  0  0  0  0  0  0  0
    7.9300   -4.1020   21.8660 N   0  0  0  0  0  0  0  0  0  0  0  0
    6.7360   -2.4550   22.8160 O   0  0  0  0  0  0  0  0  0  0  0  0
    7.8320   -2.9300   22.5160 C   0  0  0  0  0  0  0  0  0  0  0  0
    9.0710   -2.1720   22.7950 C   0  0  0  0  0  0  0  0  0  0  0  0
   10.2700   -2.1360   22.0180 C   0  0  0  0  0  0  0  0  0  0  0  0
   11.2140   -1.2370   22.5680 C   0  0  0  0  0  0  0  0  0  0  0  0
   12.5690   -0.9430   22.0100 C   0  0  0  0  0  0  0  0  0  0  0  0
   13.4200   -0.1480   22.9880 C   0  0  0  0  0  0  0  0  0  0  0  0
   12.6600    0.9520   23.6320 C   0  0  0  0  0  0  0  0  0  0  0  0
   11.5480    0.3990   24.4890 C   0  0  0  0  0  0  0  0  0  0  0  0
   10.7780   -0.6180   23.6990 C   0  0  0  0  0  0  0  0  0  0  0  0
    9.1920   -1.1090   24.1770 S   0  0  0  0  0  0  0  0  0  0  0  0
    9.0200   -3.3710   18.2760 R   0  0  0  0  0  0  0  0  0  0  0  0
  1  4  1  0
  2  4  1  0
  3  4  2  0
  1  5  1  0
  5  7  1  0
  6  7  2  0
  7  8  1  0
  8  9  2  0
  9 10  1  0
 10 11  1  0
 11 12  1  0
 12 13  1  0
 13 14  1  0
 10 15  2  0
 14 15  1  0
  8 16  1  0
 15 16  1  0
  2 17  1  0
M  END
