x0771
     RDKit          3D

 21 22  0  0  0  0  0  0  0  0999 V2000
    5.7700   -5.4150   24.2640 N   0  0  0  0  0  0  0  0  0  0  0  0
    0.6670   -1.4490   26.0940 C   0  0  0  0  0  0  0  0  0  0  0  0
    4.5540   -6.8900   25.8170 O   0  0  0  0  0  0  0  0  0  0  0  0
    1.7430   -2.4780   26.0020 C   0  0  0  0  0  0  0  0  0  0  0  0
    6.6870   -4.8240   21.6740 N   0  0  0  0  0  0  0  0  0  0  0  0
    6.0770   -5.1490   26.6880 O   0  0  0  0  0  0  0  0  0  0  0  0
    3.0520   -2.1660   26.2990 C   0  0  0  0  0  0  0  0  0  0  0  0
    5.8860   -4.1840   19.6520 O   0  0  0  0  0  0  0  0  0  0  0  0
    4.0480   -3.1110   26.2180 C   0  0  0  0  0  0  0  0  0  0  0  0
    3.7490   -4.4110   25.8290 C   0  0  0  0  0  0  0  0  0  0  0  0
    2.4230   -4.7690   25.5160 C   0  0  0  0  0  0  0  0  0  0  0  0
    1.9580   -6.1310   25.0800 C   0  0  0  0  0  0  0  0  0  0  0  0
    1.4560   -3.7740   25.6160 C   0  0  0  0  0  0  0  0  0  0  0  0
    6.5880   -4.2170   24.0270 C   0  0  0  0  0  0  0  0  0  0  0  0
    7.4870   -4.4800   22.8510 C   0  0  0  0  0  0  0  0  0  0  0  0
    5.8170   -5.9780   21.9070 C   0  0  0  0  0  0  0  0  0  0  0  0
    4.9270   -5.7370   23.0990 C   0  0  0  0  0  0  0  0  0  0  0  0
    6.7720   -4.1630   20.4980 C   0  0  0  0  0  0  0  0  0  0  0  0
    8.0650   -3.4380   20.2240 C   0  0  0  0  0  0  0  0  0  0  0  0
    5.0860   -5.5650   25.7450 S   0  0  1  0  0  0  0  0  0  0  0  0
    8.4440   -3.3760   18.4540 R   0  0  0  0  0  0  0  0  0  0  0  0
  2  4  1  0
  4  7  2  0
  7  9  1  0
  9 10  2  0
 10 11  1  0
 11 12  1  0
  4 13  1  0
 11 13  2  0
  1 14  1  0
  5 15  1  0
 14 15  1  0
  5 16  1  0
  1 17  1  0
 16 17  1  0
  5 18  1  0
  8 18  2  0
 18 19  1  0
  1 20  1  0
  3 20  2  0
  6 20  2  0
 20 10  1  6
 19 21  1  0
M  END
