x1002
     RDKit          3D

  7  7  0  0  0  0  0  0  0  0999 V2000
   12.9560  -27.3190    3.8010 N   0  0  0  0  0  0  0  0  0  0  0  0
   11.8450  -26.6140    3.4020 C   0  0  0  0  0  0  0  0  0  0  0  0
   10.7350  -27.3200    3.0860 O   0  0  0  0  0  0  0  0  0  0  0  0
   11.7900  -25.2070    3.2730 C   0  0  0  0  0  0  0  0  0  0  0  0
   12.9530  -24.5040    3.5720 C   0  0  0  0  0  0  0  0  0  0  0  0
   14.1100  -25.1910    3.9760 C   0  0  0  0  0  0  0  0  0  0  0  0
   14.0620  -26.5860    4.0750 C   0  0  0  0  0  0  0  0  0  0  0  0
  1  2  2  0
  2  3  1  0
  2  4  1  0
  4  5  2  0
  5  6  1  0
  1  7  1  0
  6  7  2  0
M  END
