x1351
     RDKit          3D

 19 20  0  0  0  0  0  0  0  0999 V2000
    6.6880   -4.2070   21.3160 N   0  0  0  0  0  0  0  0  0  0  0  0
    6.9490   -3.0390   19.1610 C   0  0  0  0  0  0  0  0  0  0  0  0
    5.5520   -4.9150   19.4990 O   0  0  0  0  0  0  0  0  0  0  0  0
    6.3430   -4.1330   20.0080 C   0  0  0  0  0  0  0  0  0  0  0  0
    5.9650   -2.7640   25.2440 N   0  0  0  0  0  0  0  0  0  0  0  0
    7.8220   -2.8400   26.5240 O   0  0  0  0  0  0  0  0  0  0  0  0
    6.0340   -5.1350   22.2500 C   0  0  0  0  0  0  0  0  0  0  0  0
    5.4320   -4.3820   23.4330 C   0  0  0  0  0  0  0  0  0  0  0  0
    6.4960   -3.5270   24.1090 C   0  0  1  0  0  0  0  0  0  0  0  0
    7.1110   -2.5830   23.0860 C   0  0  0  0  0  0  0  0  0  0  0  0
    7.7250   -3.3860   21.9500 C   0  0  0  0  0  0  0  0  0  0  0  0
    6.7750   -2.2730   26.2120 C   0  0  0  0  0  0  0  0  0  0  0  0
    6.4000   -0.9750   26.8610 C   0  0  0  0  0  0  0  0  0  0  0  0
    7.0620   -0.6300   28.0350 C   0  0  0  0  0  0  0  0  0  0  0  0
    6.7720    0.5590   28.6860 C   0  0  0  0  0  0  0  0  0  0  0  0
    5.8280    1.4170   28.1710 C   0  0  0  0  0  0  0  0  0  0  0  0
    5.1710    1.0920   27.0060 C   0  0  0  0  0  0  0  0  0  0  0  0
    5.4530   -0.0950   26.3470 C   0  0  0  0  0  0  0  0  0  0  0  0
    8.5830   -3.4000   18.4500 R   0  0  0  0  0  0  0  0  0  0  0  0
  1  4  1  0
  2  4  1  0
  3  4  2  0
  1  7  1  0
  7  8  1  0
  9  5  1  1
  8  9  1  0
  9 10  1  0
  1 11  1  0
 10 11  1  0
  5 12  1  0
  6 12  2  0
 12 13  1  0
 13 14  2  0
 14 15  1  0
 15 16  2  0
 16 17  1  0
 13 18  1  0
 17 18  2  0
  2 19  1  0
M  END
