x1478
     RDKit          3D

 12 12  0  0  0  0  0  0  0  0999 V2000
    7.4240   -3.1550   21.3530 N   0  0  0  0  0  0  0  0  0  0  0  0
    8.4700   -2.5980   19.3130 C   0  0  0  0  0  0  0  0  0  0  0  0
    6.2830   -3.5740   19.4250 O   0  0  0  0  0  0  0  0  0  0  0  0
    6.3710   -5.9070   21.7480 Cl  0  0  0  0  0  0  0  0  0  0  0  0
    7.2690   -3.1700   20.0180 C   0  0  0  0  0  0  0  0  0  0  0  0
    4.9410   -4.6800   23.5360 N   0  0  0  0  0  0  0  0  0  0  0  0
    6.4280   -3.2600   22.3460 C   0  0  0  0  0  0  0  0  0  0  0  0
    5.9980   -2.1590   23.0830 C   0  0  0  0  0  0  0  0  0  0  0  0
    5.0290   -2.3460   24.0450 C   0  0  0  0  0  0  0  0  0  0  0  0
    4.5330   -3.6170   24.2350 C   0  0  0  0  0  0  0  0  0  0  0  0
    5.8670   -4.5000   22.6190 C   0  0  0  0  0  0  0  0  0  0  0  0
    9.1280   -3.4160   17.8370 R   0  0  0  0  0  0  0  0  0  0  0  0
  1  5  1  0
  2  5  1  0
  3  5  2  0
  1  7  1  0
  7  8  1  0
  8  9  2  0
  6 10  2  0
  9 10  1  0
  4 11  1  0
  6 11  1  0
  7 11  2  0
  2 12  1  0
M  END
