x2052
     RDKit          3D

 21 22  0  0  0  0  0  0  0  0999 V2000
    7.0530   -3.3210   21.4630 N   0  0  0  0  0  0  0  0  0  0  0  0
    5.9460   -1.4710   25.1750 C   0  0  0  0  0  0  0  0  0  0  0  0
    4.7220   -1.3910   25.1390 O   0  0  0  0  0  0  0  0  0  0  0  0
    6.7260   -2.2110   24.1250 C   0  0  1  0  0  0  0  0  0  0  0  0
    6.7060   -0.9100   26.1350 N   0  0  0  0  0  0  0  0  0  0  0  0
    5.9530   -4.6450   20.0070 O   0  0  0  0  0  0  0  0  0  0  0  0
    5.9890   -3.4830   23.6820 C   0  0  0  0  0  0  0  0  0  0  0  0
    6.4960    1.9690   28.4150 N   0  0  0  0  0  0  0  0  0  0  0  0
    5.5510    2.1170   30.5380 O   0  0  0  0  0  0  0  0  0  0  0  0
    6.8030   -4.2030   22.6100 C   0  0  0  0  0  0  0  0  0  0  0  0
    6.6350   -3.6520   20.2230 C   0  0  0  0  0  0  0  0  0  0  0  0
    7.0220   -2.7150   19.0950 C   0  0  0  0  0  0  0  0  0  0  0  0
    7.7710   -2.0940   21.8370 C   0  0  0  0  0  0  0  0  0  0  0  0
    7.0050   -1.3130   22.9110 C   0  0  0  0  0  0  0  0  0  0  0  0
    6.2700   -0.1110   27.2150 C   0  0  0  0  0  0  0  0  0  0  0  0
    5.4720   -0.6170   28.2320 C   0  0  0  0  0  0  0  0  0  0  0  0
    5.2100    0.1530   29.3500 C   0  0  0  0  0  0  0  0  0  0  0  0
    5.7660    1.4380   29.3910 C   0  0  0  0  0  0  0  0  0  0  0  0
    6.0920    3.4360   30.6570 C   0  0  0  0  0  0  0  0  0  0  0  0
    6.7330    1.1940   27.3490 C   0  0  0  0  0  0  0  0  0  0  0  0
    8.4630   -3.5510   18.6730 R   0  0  0  0  0  0  0  0  0  0  0  0
  2  3  2  0
  4  2  1  1
  2  5  1  0
  4  7  1  0
  1 10  1  0
  7 10  1  0
  1 11  1  0
  6 11  2  0
 11 12  1  0
  1 13  1  0
  4 14  1  0
 13 14  1  0
  5 15  1  0
 15 16  1  0
 16 17  2  0
  8 18  2  0
  9 18  1  0
 17 18  1  0
  9 19  1  0
  8 20  1  0
 15 20  2  0
 12 21  1  0
M  END
