x2600
     RDKit          3D

 18 19  0  0  0  0  0  0  0  0999 V2000
   14.3530   -1.8730   20.5070 N   0  0  0  0  0  0  0  0  0  0  0  0
    8.4860    0.1120   21.5430 C   0  0  0  0  0  0  0  0  0  0  0  0
    9.0920    1.0620   21.0470 O   0  0  0  0  0  0  0  0  0  0  0  0
    8.9710   -0.5920   22.7950 C   0  0  0  0  0  0  0  0  0  0  0  0
    7.3340   -0.3810   21.0420 N   0  0  0  0  0  0  0  0  0  0  0  0
   10.4620   -0.4470   22.9860 C   0  0  0  0  0  0  0  0  0  0  0  0
    6.4990    0.5660   17.5840 N   0  0  0  0  0  0  0  0  0  0  0  0
   10.9760    0.2930   24.0460 C   0  0  0  0  0  0  0  0  0  0  0  0
   12.3430    0.4510   24.2060 C   0  0  0  0  0  0  0  0  0  0  0  0
   13.2190   -0.1300   23.3050 C   0  0  0  0  0  0  0  0  0  0  0  0
   12.7180   -0.8700   22.2360 C   0  0  0  0  0  0  0  0  0  0  0  0
   13.6160   -1.4330   21.2600 C   0  0  0  0  0  0  0  0  0  0  0  0
   11.3430   -1.0350   22.0830 C   0  0  0  0  0  0  0  0  0  0  0  0
    6.6060    0.1280   19.9480 C   0  0  0  0  0  0  0  0  0  0  0  0
    5.4400    0.8590   20.1410 C   0  0  0  0  0  0  0  0  0  0  0  0
    4.8180    1.4450   19.0530 C   0  0  0  0  0  0  0  0  0  0  0  0
    5.3830    1.2720   17.8000 C   0  0  0  0  0  0  0  0  0  0  0  0
    7.0870    0.0020   18.6450 C   0  0  0  0  0  0  0  0  0  0  0  0
  2  3  2  0
  2  4  1  0
  2  5  1  0
  4  6  1  0
  6  8  2  0
  8  9  1  0
  9 10  2  0
 10 11  1  0
  1 12  3  0
 11 12  1  0
  6 13  1  0
 11 13  2  0
  5 14  1  0
 14 15  1  0
 15 16  2  0
  7 17  2  0
 16 17  1  0
  7 18  1  0
 14 18  2  0
M  END
