x2646
     RDKit          3D

 18 19  0  0  0  0  0  0  0  0999 V2000
    6.5450    0.6450   17.5430 N   0  0  0  0  0  0  0  0  0  0  0  0
    4.7890    0.9530   21.4740 C   0  0  0  0  0  0  0  0  0  0  0  0
    9.0160    0.8210   21.0520 O   0  0  0  0  0  0  0  0  0  0  0  0
   13.7740   -1.7680   21.2170 Cl  0  0  0  0  0  0  0  0  0  0  0  0
    5.4180    0.8430   20.1100 C   0  0  0  0  0  0  0  0  0  0  0  0
    7.2260   -0.5660   20.9460 N   0  0  0  0  0  0  0  0  0  0  0  0
    4.8790    1.5260   19.0240 C   0  0  0  0  0  0  0  0  0  0  0  0
    5.4640    1.3980   17.7800 C   0  0  0  0  0  0  0  0  0  0  0  0
    7.0720   -0.0190   18.5770 C   0  0  0  0  0  0  0  0  0  0  0  0
    6.5590    0.0550   19.8710 C   0  0  0  0  0  0  0  0  0  0  0  0
    8.3870   -0.1420   21.4800 C   0  0  0  0  0  0  0  0  0  0  0  0
    8.8500   -0.9320   22.6900 C   0  0  0  0  0  0  0  0  0  0  0  0
   10.3220   -0.7190   22.9420 C   0  0  0  0  0  0  0  0  0  0  0  0
   10.7570    0.1360   23.9460 C   0  0  0  0  0  0  0  0  0  0  0  0
   12.0980    0.4610   24.0690 C   0  0  0  0  0  0  0  0  0  0  0  0
   13.0340   -0.0860   23.2020 C   0  0  0  0  0  0  0  0  0  0  0  0
   12.6030   -0.9800   22.2410 C   0  0  0  0  0  0  0  0  0  0  0  0
   11.2640   -1.2950   22.0900 C   0  0  0  0  0  0  0  0  0  0  0  0
  2  5  1  0
  5  7  2  0
  1  8  2  0
  7  8  1  0
  1  9  1  0
  5 10  1  0
  6 10  1  0
  9 10  2  0
  3 11  2  0
  6 11  1  0
 11 12  1  0
 12 13  1  0
 13 14  2  0
 14 15  1  0
 15 16  2  0
  4 17  1  0
 16 17  1  0
 13 18  1  0
 17 18  2  0
M  END
