x3080
     RDKit          3D

 26 28  0  0  0  0  0  0  0  0999 V2000
    9.8410   -0.4500   23.4600 N   0  0  0  0  0  0  0  0  0  0  0  0
   10.8620    0.5810   23.6660 C   0  0  0  0  0  0  0  0  0  0  0  0
    9.3610    0.9980   20.8880 O   0  0  0  0  0  0  0  0  0  0  0  0
    9.7530   -1.0320   22.1080 C   0  0  0  0  0  0  0  0  0  0  0  0
    7.8400   -0.6830   20.6820 N   0  0  0  0  0  0  0  0  0  0  0  0
    7.6430   -1.2850   24.1900 O   0  0  0  0  0  0  0  0  0  0  0  0
    8.9760   -0.1350   21.1620 C   0  0  0  0  0  0  0  0  0  0  0  0
    6.5610    0.6280   17.4800 N   0  0  0  0  0  0  0  0  0  0  0  0
    8.9750    0.1760   25.6760 O   0  0  0  0  0  0  0  0  0  0  0  0
    6.9840   -0.0590   19.7480 C   0  0  0  0  0  0  0  0  0  0  0  0
   11.9040   -1.5190   25.0720 N   0  0  0  0  0  0  0  0  0  0  0  0
    7.2950   -0.0260   18.3880 C   0  0  0  0  0  0  0  0  0  0  0  0
    5.4750    1.2720   17.9180 C   0  0  0  0  0  0  0  0  0  0  0  0
    5.0770    1.2870   19.2400 C   0  0  0  0  0  0  0  0  0  0  0  0
    5.8310    0.6110   20.1940 C   0  0  0  0  0  0  0  0  0  0  0  0
    5.4180    0.6100   21.6430 C   0  0  0  0  0  0  0  0  0  0  0  0
    9.6590   -2.3220   25.4450 C   0  0  0  0  0  0  0  0  0  0  0  0
    8.7980   -3.2780   25.9140 C   0  0  0  0  0  0  0  0  0  0  0  0
    9.2860   -4.4450   26.4790 C   0  0  0  0  0  0  0  0  0  0  0  0
   10.6270   -4.6590   26.5870 C   0  0  0  0  0  0  0  0  0  0  0  0
   11.5520   -3.6920   26.1240 C   0  0  0  0  0  0  0  0  0  0  0  0
   12.9550   -3.8350   26.2150 C   0  0  0  0  0  0  0  0  0  0  0  0
   13.7740   -2.8530   25.7500 C   0  0  0  0  0  0  0  0  0  0  0  0
   13.2060   -1.7220   25.1890 C   0  0  0  0  0  0  0  0  0  0  0  0
   11.0710   -2.4970   25.5360 C   0  0  0  0  0  0  0  0  0  0  0  0
    8.9080   -0.8850   24.7220 S   0  0  2  0  0  0  0  0  0  0  0  0
  1  2  1  0
  1  4  1  0
  3  7  2  0
  4  7  1  0
  5  7  1  0
  5 10  1  0
  8 12  2  0
 10 12  1  0
  8 13  1  0
 13 14  2  0
 10 15  2  0
 14 15  1  0
 15 16  1  0
 17 18  1  0
 18 19  2  0
 19 20  1  0
 20 21  2  0
 21 22  1  0
 22 23  2  0
 11 24  2  0
 23 24  1  0
 11 25  1  0
 17 25  2  0
 21 25  1  0
 26  1  1  6
  6 26  2  0
  9 26  2  0
 17 26  1  0
M  END
