x3110
     RDKit          3D

 33 34  0  0  0  0  0  0  0  0999 V2000
    8.0350    1.5860   23.0020 N   0  0  0  0  0  0  0  0  0  0  0  0
   13.7550    4.8990   22.9120 C   0  0  0  0  0  0  0  0  0  0  0  0
   12.0330    3.2670   22.7180 O   0  0  0  0  0  0  0  0  0  0  0  0
   12.4920    4.5860   22.2890 C   0  0  0  0  0  0  0  0  0  0  0  0
    7.5150   -1.3750   21.6880 N   0  0  0  0  0  0  0  0  0  0  0  0
   11.2780    4.0610   24.6770 O   0  0  0  0  0  0  0  0  0  0  0  0
   11.2750    3.2200   23.8190 C   0  0  0  0  0  0  0  0  0  0  0  0
    6.5890    0.3330   17.6460 N   0  0  0  0  0  0  0  0  0  0  0  0
    9.0210    1.3970   20.9830 O   0  0  0  0  0  0  0  0  0  0  0  0
   10.3250    2.0650   23.7840 C   0  0  0  0  0  0  0  0  0  0  0  0
    5.5510   -2.2280   20.9650 O   0  0  0  0  0  0  0  0  0  0  0  0
    8.9390    2.6080   23.5010 C   0  0  0  0  0  0  0  0  0  0  0  0
    8.1470    1.0650   21.7810 C   0  0  0  0  0  0  0  0  0  0  0  0
    7.0890    0.0190   21.3970 C   0  0  1  0  0  0  0  0  0  0  0  0
    6.6930   -2.4170   21.3520 C   0  0  0  0  0  0  0  0  0  0  0  0
    7.2020   -3.8280   21.5160 C   0  0  0  0  0  0  0  0  0  0  0  0
    8.3380   -4.2160   20.5830 C   0  0  0  0  0  0  0  0  0  0  0  0
    8.7660   -1.5730   22.3780 C   0  0  0  0  0  0  0  0  0  0  0  0
    9.9700   -1.5280   21.6800 C   0  0  0  0  0  0  0  0  0  0  0  0
   11.1720   -1.6360   22.3560 C   0  0  0  0  0  0  0  0  0  0  0  0
   11.2120   -1.7920   23.7410 C   0  0  0  0  0  0  0  0  0  0  0  0
   10.0020   -1.8560   24.4270 C   0  0  0  0  0  0  0  0  0  0  0  0
    8.7920   -1.7480   23.7620 C   0  0  0  0  0  0  0  0  0  0  0  0
   12.5460   -1.8170   24.4990 C   0  0  2  0  0  0  0  0  0  0  0  0
   12.7030   -0.5270   25.3010 C   0  0  0  0  0  0  0  0  0  0  0  0
   13.7370   -1.9310   23.5510 C   0  0  0  0  0  0  0  0  0  0  0  0
   12.6200   -3.0060   25.4690 C   0  0  0  0  0  0  0  0  0  0  0  0
    6.4460    0.3240   20.0530 C   0  0  0  0  0  0  0  0  0  0  0  0
    7.0380   -0.0390   18.8500 C   0  0  0  0  0  0  0  0  0  0  0  0
    5.4880    1.0930   17.6140 C   0  0  0  0  0  0  0  0  0  0  0  0
    4.8070    1.4950   18.7470 C   0  0  0  0  0  0  0  0  0  0  0  0
    5.2970    1.0990   19.9770 C   0  0  0  0  0  0  0  0  0  0  0  0
    8.1740   -3.6910   18.8490 R   0  0  0  0  0  0  0  0  0  0  0  0
  2  4  1  0
  3  4  1  0
  3  7  1  0
  6  7  2  0
  7 10  1  0
  1 12  1  0
 10 12  1  0
  1 13  1  0
  9 13  2  0
  5 14  1  0
 14 13  1  6
  5 15  1  0
 11 15  2  0
 15 16  1  0
 16 17  1  0
  5 18  1  0
 18 19  2  0
 19 20  1  0
 20 21  2  0
 21 22  1  0
 18 23  1  0
 22 23  2  0
 21 24  1  0
 24 25  1  1
 24 26  1  0
 24 27  1  0
 14 28  1  0
  8 29  2  0
 28 29  1  0
  8 30  1  0
 30 31  2  0
 28 32  2  0
 31 32  1  0
 17 33  1  0
M  END
