x3298
     RDKit          3D

 28 30  0  0  0  0  0  0  0  0999 V2000
    7.6300    1.8090   22.5280 N   0  0  0  0  0  0  0  0  0  0  0  0
    7.6660   -0.2400   21.1520 C   0  0  2  0  0  0  0  0  0  0  0  0
    6.7910   -0.7470   22.1600 O   0  0  0  0  0  0  0  0  0  0  0  0
    8.1980    1.1580   21.4800 C   0  0  0  0  0  0  0  0  0  0  0  0
    9.2260    1.3350   24.6660 N   0  0  0  0  0  0  0  0  0  0  0  0
    9.1620    1.5970   20.8590 O   0  0  0  0  0  0  0  0  0  0  0  0
    8.1760    2.9370   23.1920 C   0  0  0  0  0  0  0  0  0  0  0  0
    6.7330    0.4550   17.5380 N   0  0  0  0  0  0  0  0  0  0  0  0
   11.2650    1.4500   26.0590 O   0  0  0  0  0  0  0  0  0  0  0  0
    8.0340    4.2360   22.7010 C   0  0  0  0  0  0  0  0  0  0  0  0
    9.9390   -0.6390   25.9700 O   0  0  0  0  0  0  0  0  0  0  0  0
    8.7980    5.2620   23.2360 C   0  0  0  0  0  0  0  0  0  0  0  0
    9.7000    5.0070   24.2520 C   0  0  0  0  0  0  0  0  0  0  0  0
    9.8310    3.7250   24.7680 C   0  0  0  0  0  0  0  0  0  0  0  0
    9.0480    2.6870   24.2620 C   0  0  0  0  0  0  0  0  0  0  0  0
   11.4240   -0.0230   23.9380 C   0  0  0  0  0  0  0  0  0  0  0  0
   12.6030    0.6330   23.6200 C   0  0  0  0  0  0  0  0  0  0  0  0
   13.3470    0.2070   22.5340 C   0  0  0  0  0  0  0  0  0  0  0  0
   12.8850   -0.8570   21.8020 C   0  0  0  0  0  0  0  0  0  0  0  0
   11.7120   -1.5070   22.0830 C   0  0  0  0  0  0  0  0  0  0  0  0
   10.9670   -1.0810   23.1690 C   0  0  0  0  0  0  0  0  0  0  0  0
    6.8450    0.1170   19.9210 C   0  0  0  0  0  0  0  0  0  0  0  0
    5.5690    0.6550   20.0430 C   0  0  0  0  0  0  0  0  0  0  0  0
    4.8890    1.0980   18.9230 C   0  0  0  0  0  0  0  0  0  0  0  0
    5.5120    0.9830   17.6950 C   0  0  0  0  0  0  0  0  0  0  0  0
    7.3660    0.0280   18.6380 C   0  0  0  0  0  0  0  0  0  0  0  0
   13.6240   -1.2860   20.7490 F   0  0  0  0  0  0  0  0  0  0  0  0
   10.4750    0.5160   25.3160 S   0  0  1  0  0  0  0  0  0  0  0  0
  2  3  1  6
  1  4  1  0
  2  4  1  0
  4  6  2  0
  1  7  1  0
  7 10  2  0
 10 12  1  0
 12 13  2  0
 13 14  1  0
  5 15  1  0
  7 15  1  0
 14 15  2  0
 16 17  2  0
 17 18  1  0
 18 19  2  0
 19 20  1  0
 16 21  1  0
 20 21  2  0
  2 22  1  0
 22 23  1  0
 23 24  2  0
  8 25  2  0
 24 25  1  0
  8 26  1  0
 22 26  2  0
 19 27  1  0
 28  5  1  6
  9 28  2  0
 11 28  2  0
 16 28  1  0
M  END
