LIG
     RDKit          3D

 33 34  0  0  0  0  0  0  0  0999 V2000
    6.4340   -4.9520   26.5780 C   0  0  0  0  0  0  0  0  0  0  0  0
    8.5930   -4.1750   25.8955 C   0  0  0  0  0  0  0  0  0  0  0  0
    9.2090   -5.4040   26.2225 C   0  0  0  0  0  0  0  0  0  0  0  0
    8.5795   -3.2130   26.7435 N   0  0  0  0  0  0  0  0  0  0  0  0
    8.4300   -1.7410   25.3910 N   0  0  0  0  0  0  0  0  0  0  0  0
    8.5055   -2.7795   24.4005 C   0  0  0  0  0  0  0  0  0  0  0  0
    9.1125   -1.3850   23.1580 C   0  0  0  0  0  0  0  0  0  0  0  0
   10.3695   -0.7955   23.1215 N   0  0  0  0  0  0  0  0  0  0  0  0
   10.6920    0.1295   24.0185 C   0  0  0  0  0  0  0  0  0  0  0  0
   11.9955    0.8345   23.8180 C   0  0  0  0  0  0  0  0  0  0  0  0
   13.0005    0.1825   23.1800 C   0  0  0  0  0  0  0  0  0  0  0  0
   12.6870   -0.9810   22.3655 C   0  0  0  0  0  0  0  0  0  0  0  0
   13.4930   -1.4840   21.5620 F   0  0  0  0  0  0  0  0  0  0  0  0
   11.4305   -1.5580   22.4970 C   0  0  0  0  0  0  0  0  0  0  0  0
    9.3955   -3.3030   24.1295 S   0  0  0  0  0  0  0  0  0  0  0  0
    6.4794   -5.6431   25.8286 H   0  0  0  0  0  0  0  0  0  0  0  0
    6.0764   -4.0134   26.3719 H   0  0  0  0  0  0  0  0  0  0  0  0
    6.8205   -5.1522   27.4974 H   0  0  0  0  0  0  0  0  0  0  0  0
   10.3137   -5.3485   26.4009 H   0  0  0  0  0  0  0  0  0  0  0  0
    9.1016   -6.1864   25.4293 H   0  0  0  0  0  0  0  0  0  0  0  0
    8.7992   -5.8939   27.1421 H   0  0  0  0  0  0  0  0  0  0  0  0
    7.8022   -2.9411   27.2615 H   0  0  0  0  0  0  0  0  0  0  0  0
    7.5490   -1.5208   25.6265 H   0  0  0  0  0  0  0  0  0  0  0  0
   10.1471   -1.8115   24.8427 H   0  0  0  0  0  0  0  0  0  0  0  0
    8.8110   -1.9227   22.2073 H   0  0  0  0  0  0  0  0  0  0  0  0
    8.2352   -0.6808   23.3081 H   0  0  0  0  0  0  0  0  0  0  0  0
   10.7330   -0.2807   25.0818 H   0  0  0  0  0  0  0  0  0  0  0  0
    9.8788    0.9284   24.1223 H   0  0  0  0  0  0  0  0  0  0  0  0
   12.3543    1.1980   24.8404 H   0  0  0  0  0  0  0  0  0  0  0  0
   11.7592    1.8255   23.3004 H   0  0  0  0  0  0  0  0  0  0  0  0
   14.0516    0.4328   23.2152 H   0  0  0  0  0  0  0  0  0  0  0  0
   11.0757   -1.9128   21.4783 H   0  0  0  0  0  0  0  0  0  0  0  0
   11.5207   -2.5269   23.0776 H   0  0  0  0  0  0  0  0  0  0  0  0
  1  2  1  0
  2  3  1  0
  2  4  1  0
  4  5  1  0
  5  6  1  0
  6  7  1  0
  7  8  1  0
  8  9  1  0
  9 10  1  0
 10 11  1  0
 11 12  2  0
 12 13  1  0
 12 14  1  0
  6 15  1  0
 15  2  1  0
 14  8  1  0
  1 16  1  0
  1 17  1  0
  1 18  1  0
  3 19  1  0
  3 20  1  0
  3 21  1  0
  4 22  1  0
  5 23  1  0
  6 24  1  0
  7 25  1  0
  7 26  1  0
  9 27  1  0
  9 28  1  0
 10 29  1  0
 10 30  1  0
 11 31  1  0
 14 32  1  0
 14 33  1  0
M  END
