
     RDKit          3D

 47 48  0  0  0  0  0  0  0  0999 V2000
    6.5790   -5.2150   26.2780 C   0  0  0  0  0  0  0  0  0  0  0  0
    8.0760   -4.2930   25.9950 S   0  0  2  0  0  0  0  0  0  0  0  0
    9.1560   -5.2210   25.7550 O   0  0  0  0  0  0  0  0  0  0  0  0
    8.1300   -3.2950   27.0350 O   0  0  0  0  0  0  0  0  0  0  0  0
    7.6950   -3.4410   24.5800 N   0  0  0  0  0  0  0  0  0  0  0  0
    8.7010   -3.2170   23.5080 C   0  0  0  0  0  0  0  0  0  0  0  0
    8.6730   -1.8620   23.0700 C   0  0  0  0  0  0  0  0  0  0  0  0
    9.9810   -1.0630   22.9390 C   0  0  0  0  0  0  0  0  0  0  0  0
   11.0940   -1.7490   22.3080 C   0  0  0  0  0  0  0  0  0  0  0  0
   12.3350   -1.2710   22.0880 C   0  0  0  0  0  0  0  0  0  0  0  0
   13.1070   -2.2850   21.3730 C   0  0  0  0  0  0  0  0  0  0  0  0
   13.5770   -3.0830   20.7280 N   0  0  0  0  0  0  0  0  0  0  0  0
   12.7200   -0.0040   22.4870 C   0  0  0  0  0  0  0  0  0  0  0  0
   11.6570    0.8260   23.1300 C   0  0  0  0  0  0  0  0  0  0  0  0
   10.2360    0.2520   23.3390 C   0  0  0  0  0  0  0  0  0  0  0  0
    9.2660    1.0270   23.8890 C   0  0  0  0  0  0  0  0  0  0  0  0
    8.0390    0.9240   23.2170 N   0  0  0  0  0  0  0  0  0  0  0  0
    7.3090    1.9700   23.5650 C   0  0  0  0  0  0  0  0  0  0  0  0
    7.8150    3.0500   23.8230 O   0  0  0  0  0  0  0  0  0  0  0  0
    5.9880    1.7280   23.5920 N   0  0  0  0  0  0  0  0  0  0  0  0
    5.4000    1.2970   24.8640 C   0  0  0  0  0  0  0  0  0  0  0  0
    4.2430    0.5800   24.5770 C   0  0  0  0  0  0  0  0  0  0  0  0
    3.3170    1.3720   23.7970 O   0  0  0  0  0  0  0  0  0  0  0  0
    3.8820    1.8610   22.5570 C   0  0  0  0  0  0  0  0  0  0  0  0
    5.1290    2.6200   22.8550 C   0  0  0  0  0  0  0  0  0  0  0  0
    6.8260   -6.1040   26.8670 H   0  0  0  0  0  0  0  0  0  0  0  0
    6.1540   -5.5320   25.3210 H   0  0  0  0  0  0  0  0  0  0  0  0
    5.8650   -4.5970   26.8270 H   0  0  0  0  0  0  0  0  0  0  0  0
    6.7250   -3.5830   24.3350 H   0  0  0  0  0  0  0  0  0  0  0  0
    9.6910   -3.4990   23.8510 H   0  0  0  0  0  0  0  0  0  0  0  0
    8.4250   -3.8640   22.6720 H   0  0  0  0  0  0  0  0  0  0  0  0
    8.2080   -1.8460   22.0740 H   0  0  0  0  0  0  0  0  0  0  0  0
    7.9680   -1.3250   23.7120 H   0  0  0  0  0  0  0  0  0  0  0  0
   10.9110   -2.7740   21.9630 H   0  0  0  0  0  0  0  0  0  0  0  0
   13.7190    0.3870   22.3320 H   0  0  0  0  0  0  0  0  0  0  0  0
   11.8930    1.8500   23.4420 H   0  0  0  0  0  0  0  0  0  0  0  0
    9.0110    0.7330   24.8650 H   0  0  0  0  0  0  0  0  0  0  0  0
    9.5290    2.0820   23.9330 H   0  0  0  0  0  0  0  0  0  0  0  0
    7.5270    0.0420   23.2780 H   0  0  0  0  0  0  0  0  0  0  0  0
    5.3220    2.1490   25.5360 H   0  0  0  0  0  0  0  0  0  0  0  0
    6.1250    0.6150   25.3040 H   0  0  0  0  0  0  0  0  0  0  0  0
    4.4900   -0.3140   23.9950 H   0  0  0  0  0  0  0  0  0  0  0  0
    3.7370    0.2540   25.4940 H   0  0  0  0  0  0  0  0  0  0  0  0
    4.1020    1.0300   21.8820 H   0  0  0  0  0  0  0  0  0  0  0  0
    3.1400    2.5050   22.0780 H   0  0  0  0  0  0  0  0  0  0  0  0
    4.8970    3.5340   23.4030 H   0  0  0  0  0  0  0  0  0  0  0  0
    5.6500    2.8840   21.9270 H   0  0  0  0  0  0  0  0  0  0  0  0
  1  2  1  0
  2  3  2  0
  2  4  2  0
  2  5  1  6
  5  6  1  0
  6  7  1  0
  7  8  1  0
  8  9  2  0
  9 10  1  0
 10 11  1  0
 11 12  3  0
 10 13  2  0
 13 14  1  0
  8 15  1  0
 14 15  2  0
 15 16  1  0
 16 17  1  0
 17 18  1  0
 18 19  2  0
 18 20  1  0
 20 21  1  0
 21 22  1  0
 22 23  1  0
 23 24  1  0
 20 25  1  0
 24 25  1  0
  1 26  1  0
  1 27  1  0
  1 28  1  0
  5 29  1  0
  6 30  1  0
  6 31  1  0
  7 32  1  0
  7 33  1  0
  9 34  1  0
 13 35  1  0
 14 36  1  0
 16 37  1  0
 16 38  1  0
 17 39  1  0
 21 40  1  0
 21 41  1  0
 22 42  1  0
 22 43  1  0
 24 44  1  0
 24 45  1  0
 25 46  1  0
 25 47  1  0
M  END
