LIG
     RDKit          3D

 37 38  0  0  0  0  0  0  0  0999 V2000
    6.4340   -4.9520   26.5780 C   0  0  0  0  0  0  0  0  0  0  0  0
    8.0950   -4.3580   26.1540 S   0  0  0  0  0  6  0  0  0  0  0  0
    8.6390   -3.5100   27.2010 O   0  0  0  0  0  0  0  0  0  0  0  0
    9.0830   -5.4410   26.1700 O   0  0  0  0  0  0  0  0  0  0  0  0
    8.0610   -3.5350   24.6620 N   0  0  0  0  0  0  0  0  0  0  0  0
    9.3140   -3.0270   24.1660 C   0  0  0  0  0  0  0  0  0  0  0  0
    9.2100   -1.7480   23.3470 C   0  0  0  0  0  0  0  0  0  0  0  0
   10.6040   -1.1420   23.3930 C   0  0  0  0  0  0  0  0  0  0  0  0
   11.5830   -1.6930   22.5900 C   0  0  0  0  0  0  0  0  0  0  0  0
   13.0670   -0.9060   22.6520 C   0  0  0  0  0  0  0  0  0  0  0  0
   12.8170    0.4965   23.3005 C   0  0  0  0  0  0  0  0  0  0  0  0
   13.1480    2.2850   22.7650 C   0  0  0  0  0  0  0  0  0  0  0  0
   12.5830    3.5320   23.0260 C   0  0  0  0  0  0  0  0  0  0  0  0
   11.3350    3.6620   23.6540 C   0  0  0  0  0  0  0  0  0  0  0  0
   10.6680    5.1850   23.9350 S   0  0  0  0  0  6  0  0  0  0  0  0
    9.3520    5.1750   22.9550 N   0  0  0  0  0  0  0  0  0  0  0  0
   11.5530    6.1960   23.4620 O   0  0  0  0  0  0  0  0  0  0  0  0
   10.1890    5.2490   25.2610 O   0  0  0  0  0  0  0  0  0  0  0  0
   10.6670    2.4740   24.0250 C   0  0  0  0  0  0  0  0  0  0  0  0
   11.7060    0.8060   24.0235 C   0  0  0  0  0  0  0  0  0  0  0  0
   10.9090   -0.0960   24.2540 C   0  0  0  0  0  0  0  0  0  0  0  0
    6.5461   -5.6408   27.4119 H   0  0  0  0  0  0  0  0  0  0  0  0
    6.4169   -6.0300   26.4449 H   0  0  0  0  0  0  0  0  0  0  0  0
    6.2174   -4.6642   27.6023 H   0  0  0  0  0  0  0  0  0  0  0  0
    7.3626   -3.8816   24.0331 H   0  0  0  0  0  0  0  0  0  0  0  0
    9.7650   -3.8187   23.5188 H   0  0  0  0  0  0  0  0  0  0  0  0
   10.0490   -2.8802   24.9981 H   0  0  0  0  0  0  0  0  0  0  0  0
    8.5101   -1.0650   23.7553 H   0  0  0  0  0  0  0  0  0  0  0  0
    8.9702   -1.9905   22.3409 H   0  0  0  0  0  0  0  0  0  0  0  0
   11.5718   -2.4812   21.9589 H   0  0  0  0  0  0  0  0  0  0  0  0
   13.8252   -1.2946   22.3378 H   0  0  0  0  0  0  0  0  0  0  0  0
   14.0559    2.1759   22.0604 H   0  0  0  0  0  0  0  0  0  0  0  0
   13.1364    4.4389   22.7275 H   0  0  0  0  0  0  0  0  0  0  0  0
    9.4134    5.9193   22.2507 H   0  0  0  0  0  0  0  0  0  0  0  0
    8.9062    6.0995   22.9305 H   0  0  0  0  0  0  0  0  0  0  0  0
    9.7381    2.2376   24.3080 H   0  0  0  0  0  0  0  0  0  0  0  0
   10.3308   -0.1390   25.2483 H   0  0  0  0  0  0  0  0  0  0  0  0
  1  2  1  0
  2  3  2  0
  2  4  2  0
  2  5  1  0
  5  6  1  0
  6  7  1  0
  7  8  1  0
  8  9  4  0
  9 10  4  0
 10 11  4  0
 11 12  4  0
 12 13  4  0
 13 14  4  0
 14 15  1  0
 15 16  1  0
 15 17  2  0
 15 18  2  0
 14 19  4  0
 19 20  4  0
 20 21  4  0
 21  8  4  0
 20 11  4  0
  1 22  1  0
  1 23  1  0
  1 24  1  0
  5 25  1  0
  6 26  1  0
  6 27  1  0
  7 28  1  0
  7 29  1  0
  9 30  1  0
 10 31  1  0
 12 32  1  0
 13 33  1  0
 16 34  1  0
 16 35  1  0
 19 36  1  0
 21 37  1  0
M  END
