
     RDKit          3D

 38 39  0  0  0  0  0  0  0  0999 V2000
    6.5930   -4.7830   26.0860 C   0  0  0  0  0  0  0  0  0  0  0  0
    8.2470   -4.2400   25.6910 S   0  0  2  0  0  0  0  0  0  0  0  0
    8.9520   -5.3260   25.0610 O   0  0  0  0  0  0  0  0  0  0  0  0
    8.7630   -3.6520   26.8950 O   0  0  0  0  0  0  0  0  0  0  0  0
    7.9740   -2.9500   24.5920 N   0  0  0  0  0  0  0  0  0  0  0  0
    8.6280   -2.8540   23.2400 C   0  0  0  0  0  0  0  0  0  0  0  0
    8.9770   -1.4630   22.8160 N   0  0  0  0  0  0  0  0  0  0  0  0
    8.3130   -0.6760   21.7900 C   0  0  0  0  0  0  0  0  0  0  0  0
    8.8020    0.4050   21.4520 O   0  0  0  0  0  0  0  0  0  0  0  0
    7.1390   -1.0950   21.1720 N   0  0  0  0  0  0  0  0  0  0  0  0
    6.4500   -0.3150   20.1860 C   0  0  0  0  0  0  0  0  0  0  0  0
    5.1930    0.4630   20.4130 C   0  0  0  0  0  0  0  0  0  0  0  0
    4.5450    1.2230   19.4460 C   0  0  0  0  0  0  0  0  0  0  0  0
    5.2820    1.1660   18.1160 C   0  0  0  0  0  0  0  0  0  0  0  0
    6.4170    0.4720   17.8790 N   0  0  0  0  0  0  0  0  0  0  0  0
    6.9760   -0.2450   18.8820 C   0  0  0  0  0  0  0  0  0  0  0  0
   10.3450   -1.0210   22.9380 C   0  0  0  0  0  0  0  0  0  0  0  0
   11.4790   -1.6810   22.1550 C   0  0  0  0  0  0  0  0  0  0  0  0
   12.7640   -1.1950   22.2920 C   0  0  0  0  0  0  0  0  0  0  0  0
   13.0140   -0.1210   23.1280 C   0  0  0  0  0  0  0  0  0  0  0  0
   12.0050    0.4870   23.8500 C   0  0  0  0  0  0  0  0  0  0  0  0
   10.6960    0.0470   23.7620 C   0  0  0  0  0  0  0  0  0  0  0  0
    6.5720   -5.8740   26.0740 H   0  0  0  0  0  0  0  0  0  0  0  0
    6.3260   -4.4370   27.0890 H   0  0  0  0  0  0  0  0  0  0  0  0
    5.8880   -4.3910   25.3470 H   0  0  0  0  0  0  0  0  0  0  0  0
    7.0470   -2.5660   24.7260 H   0  0  0  0  0  0  0  0  0  0  0  0
    9.5560   -3.4370   23.2530 H   0  0  0  0  0  0  0  0  0  0  0  0
    7.9490   -3.3180   22.5170 H   0  0  0  0  0  0  0  0  0  0  0  0
    6.5560   -1.7430   21.7050 H   0  0  0  0  0  0  0  0  0  0  0  0
    4.7650    0.4260   21.4130 H   0  0  0  0  0  0  0  0  0  0  0  0
    3.6380    1.8120   19.5220 H   0  0  0  0  0  0  0  0  0  0  0  0
    4.8980    1.7160   17.2530 H   0  0  0  0  0  0  0  0  0  0  0  0
    7.8840   -0.7780   18.6090 H   0  0  0  0  0  0  0  0  0  0  0  0
   11.3160   -2.5190   21.4870 H   0  0  0  0  0  0  0  0  0  0  0  0
   13.5350   -1.6980   21.7090 H   0  0  0  0  0  0  0  0  0  0  0  0
   14.0110    0.2520   23.2160 H   0  0  0  0  0  0  0  0  0  0  0  0
   12.2430    1.3190   24.4890 H   0  0  0  0  0  0  0  0  0  0  0  0
    9.9650    0.5780   24.3580 H   0  0  0  0  0  0  0  0  0  0  0  0
  1  2  1  0
  2  3  2  0
  2  4  2  0
  2  5  1  6
  5  6  1  0
  6  7  1  0
  7  8  1  0
  8  9  2  0
  8 10  1  0
 10 11  1  0
 11 12  2  0
 12 13  1  0
 13 14  2  0
 14 15  1  0
 11 16  1  0
 15 16  2  0
  7 17  1  0
 17 18  2  0
 18 19  1  0
 19 20  2  0
 20 21  1  0
 17 22  1  0
 21 22  2  0
  1 23  1  0
  1 24  1  0
  1 25  1  0
  5 26  1  0
  6 27  1  0
  6 28  1  0
 10 29  1  0
 12 30  1  0
 13 31  1  0
 14 32  1  0
 16 33  1  0
 18 34  1  0
 19 35  1  0
 20 36  1  0
 21 37  1  0
 22 38  1  0
M  END
