LIG
     RDKit          3D

 35 35  0  0  0  0  0  0  0  0999 V2000
    8.4100    0.0120   27.4140 C   0  0  0  0  0  0  0  0  0  0  0  0
    8.9670   -0.5390   26.1210 C   0  0  0  0  0  0  0  0  0  0  0  0
   10.1000    0.2670   25.7050 N   0  0  0  0  0  0  0  0  0  0  0  0
   10.9180   -0.1360   24.4315 C   0  0  0  0  0  0  0  0  0  0  0  0
   12.1025    0.4630   24.2885 C   0  0  0  0  0  0  0  0  0  0  0  0
   12.9835   -0.0030   23.3795 C   0  0  0  0  0  0  0  0  0  0  0  0
   12.6825   -1.0940   22.5720 C   0  0  0  0  0  0  0  0  0  0  0  0
   13.3880   -1.4320   21.3740 C   0  0  0  0  0  0  0  0  0  0  0  0
   14.0700   -1.7370   20.5180 N   0  0  0  0  0  0  0  0  0  0  0  0
   11.4740   -1.7095   22.7130 C   0  0  0  0  0  0  0  0  0  0  0  0
   10.5900   -1.2265   23.6415 C   0  0  0  0  0  0  0  0  0  0  0  0
    9.2100   -1.7480   23.3470 C   0  0  0  0  0  0  0  0  0  0  0  0
    9.3140   -3.0270   24.1660 C   0  0  0  0  0  0  0  0  0  0  0  0
    8.0610   -3.5350   24.6620 N   0  0  0  0  0  0  0  0  0  0  0  0
    8.0950   -4.3580   26.1540 S   0  0  0  0  0  6  0  0  0  0  0  0
    6.4340   -4.9520   26.5780 C   0  0  0  0  0  0  0  0  0  0  0  0
    8.6390   -3.5100   27.2010 O   0  0  0  0  0  0  0  0  0  0  0  0
    9.0830   -5.4410   26.1700 O   0  0  0  0  0  0  0  0  0  0  0  0
    7.3917   -0.3454   27.6043 H   0  0  0  0  0  0  0  0  0  0  0  0
    7.4989    0.5957   27.2356 H   0  0  0  0  0  0  0  0  0  0  0  0
    8.1589   -0.8042   28.1008 H   0  0  0  0  0  0  0  0  0  0  0  0
    8.2007   -0.4588   25.3502 H   0  0  0  0  0  0  0  0  0  0  0  0
    9.2158   -1.5933   26.2074 H   0  0  0  0  0  0  0  0  0  0  0  0
   10.7014    0.5518   26.4345 H   0  0  0  0  0  0  0  0  0  0  0  0
   12.3962    1.3272   24.8854 H   0  0  0  0  0  0  0  0  0  0  0  0
   13.9721    0.4813   23.2729 H   0  0  0  0  0  0  0  0  0  0  0  0
   11.2256   -2.5706   22.0970 H   0  0  0  0  0  0  0  0  0  0  0  0
    9.0978   -1.9834   22.3406 H   0  0  0  0  0  0  0  0  0  0  0  0
    8.4948   -1.0862   23.6919 H   0  0  0  0  0  0  0  0  0  0  0  0
   10.0367   -2.9293   25.0147 H   0  0  0  0  0  0  0  0  0  0  0  0
    9.7847   -3.8208   23.5340 H   0  0  0  0  0  0  0  0  0  0  0  0
    7.2067   -3.0144   24.5266 H   0  0  0  0  0  0  0  0  0  0  0  0
    6.3948   -6.0199   26.3863 H   0  0  0  0  0  0  0  0  0  0  0  0
    6.2836   -4.7475   27.6350 H   0  0  0  0  0  0  0  0  0  0  0  0
    6.5348   -5.7214   27.3379 H   0  0  0  0  0  0  0  0  0  0  0  0
  1  2  1  0
  2  3  1  0
  3  4  1  0
  4  5  4  0
  5  6  4  0
  6  7  4  0
  7  8  1  0
  8  9  3  0
  7 10  4  0
 10 11  4  0
 11 12  1  0
 12 13  1  0
 13 14  1  0
 14 15  1  0
 15 16  1  0
 15 17  2  0
 15 18  2  0
 11  4  4  0
  1 19  1  0
  1 20  1  0
  1 21  1  0
  2 22  1  0
  2 23  1  0
  3 24  1  0
  5 25  1  0
  6 26  1  0
 10 27  1  0
 12 28  1  0
 12 29  1  0
 13 30  1  0
 13 31  1  0
 14 32  1  0
 16 33  1  0
 16 34  1  0
 16 35  1  0
M  END
