LIG
     RDKit          3D

 31 32  0  0  0  0  0  0  0  0999 V2000
    6.4340   -4.9520   26.5780 C   0  0  0  0  0  0  0  0  0  0  0  0
    8.0870   -4.3135   25.9810 S   0  0  0  0  0  6  0  0  0  0  0  0
    8.9715   -3.8625   27.5105 O   0  0  0  0  0  0  0  0  0  0  0  0
    9.1325   -5.1285   26.3625 O   0  0  0  0  0  3  0  0  0  0  0  0
   10.4200   -4.6660   25.8330 C   0  0  0  0  0  0  0  0  0  0  0  0
   10.6550   -3.2590   25.2740 C   0  0  0  0  0  0  0  0  0  0  0  0
    9.4290   -2.8575   24.3585 C   0  0  0  0  0  0  0  0  0  0  0  0
    9.4545   -1.6240   23.7965 C   0  0  0  0  0  0  0  0  0  0  0  0
   10.8395   -1.1425   23.5295 C   0  0  0  0  0  0  0  0  0  0  0  0
   11.6495   -1.7400   22.5745 C   0  0  0  0  0  0  0  0  0  0  0  0
   13.0140   -1.1555   22.4445 C   0  0  0  0  0  0  0  0  0  0  0  0
   13.1845   -0.0615   23.4455 C   0  0  0  0  0  0  0  0  0  0  0  0
   12.0890    0.1895   24.2340 C   0  0  0  0  0  0  0  0  0  0  0  0
   10.9090   -0.0960   24.2540 C   0  0  0  0  0  0  0  0  0  0  0  0
    8.1960   -3.1850   24.9990 N   0  0  0  0  0  0  0  0  0  0  0  0
    5.7212   -4.6020   25.8613 H   0  0  0  0  0  0  0  0  0  0  0  0
    5.8412   -4.0767   26.7435 H   0  0  0  0  0  0  0  0  0  0  0  0
    6.0659   -5.5679   25.7847 H   0  0  0  0  0  0  0  0  0  0  0  0
   10.7655   -5.4629   25.0970 H   0  0  0  0  0  0  0  0  0  0  0  0
   11.1390   -4.8309   26.6916 H   0  0  0  0  0  0  0  0  0  0  0  0
   10.7082   -2.5622   26.0985 H   0  0  0  0  0  0  0  0  0  0  0  0
   11.5717   -3.2198   24.7089 H   0  0  0  0  0  0  0  0  0  0  0  0
    9.3190   -1.8074   25.7221 H   0  0  0  0  0  0  0  0  0  0  0  0
    8.9168   -1.5606   22.8113 H   0  0  0  0  0  0  0  0  0  0  0  0
    8.9385   -0.8305   24.4037 H   0  0  0  0  0  0  0  0  0  0  0  0
   11.3917   -2.5300   21.9498 H   0  0  0  0  0  0  0  0  0  0  0  0
   13.6926   -1.4324   21.7967 H   0  0  0  0  0  0  0  0  0  0  0  0
   14.0919    0.4515   23.4853 H   0  0  0  0  0  0  0  0  0  0  0  0
   12.4557    0.9242   25.1686 H   0  0  0  0  0  0  0  0  0  0  0  0
   10.1296    0.3957   24.7328 H   0  0  0  0  0  0  0  0  0  0  0  0
    7.8176   -2.2713   25.3938 H   0  0  0  0  0  0  0  0  0  0  0  0
  1  2  1  0
  2  3  2  0
  2  4  2  0
  4  5  1  0
  5  6  1  0
  6  7  1  0
  7  8  1  0
  8  9  1  0
  9 10  4  0
 10 11  4  0
 11 12  4  0
 12 13  4  0
 13 14  4  0
  7 15  1  0
 15  2  1  0
 14  9  4  0
  1 16  1  0
  1 17  1  0
  1 18  1  0
  5 19  1  0
  5 20  1  0
  6 21  1  0
  6 22  1  0
  7 23  1  0
  8 24  1  0
  8 25  1  0
 10 26  1  0
 11 27  1  0
 12 28  1  0
 13 29  1  0
 14 30  1  0
 15 31  1  0
M  CHG  1   4   1
M  END
