LIG
     RDKit          3D

 43 45  0  0  0  0  0  0  0  0999 V2000
    9.8900    1.5270   21.3460 N   0  0  0  0  0  0  0  0  0  0  0  0
    9.7510    0.5640   21.9590 C   0  0  0  0  0  0  0  0  0  0  0  0
    9.3970   -1.1660   23.0505 C   0  0  0  0  0  0  0  0  0  0  0  0
    8.8780   -0.4790   23.9400 C   0  0  0  0  0  0  0  0  0  0  0  0
    8.8070   -1.5850   24.7810 C   0  0  0  0  0  0  0  0  0  0  0  0
    9.3815   -2.9090   24.2985 C   0  0  0  0  0  0  0  0  0  0  0  0
    8.7950   -3.7525   24.9630 N   0  0  0  0  0  0  0  0  0  0  0  0
    9.4885   -5.3660   25.4250 C   0  0  0  0  0  0  0  0  0  0  0  0
    8.9080   -5.8040   23.6240 C   0  0  0  0  0  0  0  0  0  0  0  0
    7.4420   -5.5890   24.0410 C   0  0  0  0  0  0  0  0  0  0  0  0
    7.3000   -5.8000   25.4420 O   0  0  0  0  0  0  0  0  0  0  0  0
    6.8600   -4.8100   26.4275 C   0  0  0  0  0  0  0  0  0  0  0  0
    8.3980   -4.2155   26.3255 C   0  0  0  0  0  0  0  0  0  0  0  0
    8.6390   -3.5100   27.2010 O   0  0  0  0  0  0  0  0  0  0  0  0
   10.8530   -2.2390   22.8770 C   0  0  0  0  0  0  0  0  0  0  0  0
   12.8710   -1.1970   22.6200 C   0  0  0  0  0  0  0  0  0  0  0  0
   13.1790   -0.1430   23.4700 C   0  0  0  0  0  0  0  0  0  0  0  0
   12.1980    0.4100   24.2780 C   0  0  0  0  0  0  0  0  0  0  0  0
   10.9090   -0.0960   24.2540 C   0  0  0  0  0  0  0  0  0  0  0  0
   10.4025   -1.4350   22.8650 N   0  0  0  0  0  0  0  0  0  0  0  0
   10.6312   -0.0335   23.7248 H   0  0  0  0  0  0  0  0  0  0  0  0
    9.5040    0.2671   24.3866 H   0  0  0  0  0  0  0  0  0  0  0  0
    7.8984   -0.0774   23.7809 H   0  0  0  0  0  0  0  0  0  0  0  0
    7.7170   -1.7617   25.0854 H   0  0  0  0  0  0  0  0  0  0  0  0
    9.2648   -1.3624   25.8132 H   0  0  0  0  0  0  0  0  0  0  0  0
   10.3599   -2.6437   25.2895 H   0  0  0  0  0  0  0  0  0  0  0  0
   10.3879   -5.2590   25.2747 H   0  0  0  0  0  0  0  0  0  0  0  0
    8.8359   -5.7320   25.9366 H   0  0  0  0  0  0  0  0  0  0  0  0
    9.3243   -5.0715   23.1335 H   0  0  0  0  0  0  0  0  0  0  0  0
    9.1647   -6.7603   23.6323 H   0  0  0  0  0  0  0  0  0  0  0  0
    7.1763   -4.5585   23.8433 H   0  0  0  0  0  0  0  0  0  0  0  0
    6.7724   -6.2332   23.4878 H   0  0  0  0  0  0  0  0  0  0  0  0
    6.3218   -4.1320   25.9332 H   0  0  0  0  0  0  0  0  0  0  0  0
    6.6987   -5.1437   27.3139 H   0  0  0  0  0  0  0  0  0  0  0  0
   10.8560   -0.9392   24.1470 H   0  0  0  0  0  0  0  0  0  0  0  0
   13.4118   -2.1666   22.6841 H   0  0  0  0  0  0  0  0  0  0  0  0
   12.6918   -1.0437   21.5320 H   0  0  0  0  0  0  0  0  0  0  0  0
   14.0879   -0.4494   24.1336 H   0  0  0  0  0  0  0  0  0  0  0  0
   13.7081    0.7031   22.8641 H   0  0  0  0  0  0  0  0  0  0  0  0
   12.5896    0.4341   25.3710 H   0  0  0  0  0  0  0  0  0  0  0  0
   12.1518    1.5542   24.0932 H   0  0  0  0  0  0  0  0  0  0  0  0
   10.5862   -0.7001   25.1357 H   0  0  0  0  0  0  0  0  0  0  0  0
   10.0328    0.5900   24.0788 H   0  0  0  0  0  0  0  0  0  0  0  0
  1  2  3  0
  2  3  1  0
  3  4  1  0
  4  5  1  0
  5  6  1  0
  6  7  1  0
  7  8  1  0
  8  9  1  0
  9 10  1  0
 10 11  1  0
 11 12  1  0
 12 13  1  0
 13 14  2  0
  6 15  1  0
 15 16  1  0
 16 17  1  0
 17 18  1  0
 18 19  1  0
 19 20  1  0
 20  3  1  0
 13  7  1  0
 20 15  1  0
  3 21  1  0
  4 22  1  0
  4 23  1  0
  5 24  1  0
  5 25  1  0
  6 26  1  0
  8 27  1  0
  8 28  1  0
  9 29  1  0
  9 30  1  0
 10 31  1  0
 10 32  1  0
 12 33  1  0
 12 34  1  0
 15 35  1  0
 16 36  1  0
 16 37  1  0
 17 38  1  0
 17 39  1  0
 18 40  1  0
 18 41  1  0
 19 42  1  0
 19 43  1  0
M  END
