LIG
     RDKit          3D

 48 49  0  0  0  0  0  0  0  0999 V2000
    5.3930    0.6630   21.8670 C   0  0  0  0  0  0  0  0  0  0  0  0
    5.8360    0.5550   20.4100 C   0  0  0  0  0  0  0  0  0  0  0  0
    5.0650    1.0940   19.3800 C   0  0  0  0  0  0  0  0  0  0  0  0
    5.5190    0.9700   18.0740 C   0  0  0  0  0  0  0  0  0  0  0  0
    6.6520    0.3680   17.7870 N   0  0  0  0  0  0  0  0  0  0  0  0
    7.4050   -0.1450   18.7400 C   0  0  0  0  0  0  0  0  0  0  0  0
    7.0320   -0.0760   20.0760 C   0  0  0  0  0  0  0  0  0  0  0  0
    7.8860   -0.6570   21.1000 N   0  0  0  0  0  0  0  0  0  0  0  0
    9.1310   -0.0090   21.4750 C   0  0  0  0  0  0  0  0  0  0  0  0
    9.4550    1.0030   20.9560 O   0  0  0  0  0  0  0  0  0  0  0  0
   10.3165   -0.8830   22.9695 C   0  0  0  0  0  0  0  0  0  0  0  0
    9.2100   -1.7480   23.3470 C   0  0  0  0  0  0  0  0  0  0  0  0
    9.3140   -3.0270   24.1660 C   0  0  0  0  0  0  0  0  0  0  0  0
    8.0610   -3.5350   24.6620 N   0  0  0  0  0  0  0  0  0  0  0  0
    8.0950   -4.3580   26.1540 S   0  0  0  0  0  6  0  0  0  0  0  0
    6.4340   -4.9520   26.5780 C   0  0  0  0  0  0  0  0  0  0  0  0
    9.0830   -5.4410   26.1700 O   0  0  0  0  0  0  0  0  0  0  0  0
    8.6390   -3.5100   27.2010 O   0  0  0  0  0  0  0  0  0  0  0  0
   10.9090   -0.0960   24.2540 C   0  0  0  0  0  0  0  0  0  0  0  0
   12.1980    0.4100   24.2780 C   0  0  0  0  0  0  0  0  0  0  0  0
   13.1790   -0.1430   23.4700 C   0  0  0  0  0  0  0  0  0  0  0  0
   12.8710   -1.1970   22.6200 C   0  0  0  0  0  0  0  0  0  0  0  0
   11.5830   -1.6930   22.5900 C   0  0  0  0  0  0  0  0  0  0  0  0
    6.2584    0.5654   22.5239 H   0  0  0  0  0  0  0  0  0  0  0  0
    4.6855   -0.1276   22.1222 H   0  0  0  0  0  0  0  0  0  0  0  0
    5.6718   -0.2441   22.4051 H   0  0  0  0  0  0  0  0  0  0  0  0
    4.1289    1.6035   19.5689 H   0  0  0  0  0  0  0  0  0  0  0  0
    4.9517    1.3667   17.2468 H   0  0  0  0  0  0  0  0  0  0  0  0
    8.3056   -0.6152   18.4040 H   0  0  0  0  0  0  0  0  0  0  0  0
    7.6060   -1.4268   21.5672 H   0  0  0  0  0  0  0  0  0  0  0  0
    8.3536   -1.1180   23.8245 H   0  0  0  0  0  0  0  0  0  0  0  0
    8.6318   -2.0711   22.3939 H   0  0  0  0  0  0  0  0  0  0  0  0
    9.7569   -3.8251   23.5138 H   0  0  0  0  0  0  0  0  0  0  0  0
   10.0610   -2.9145   24.9977 H   0  0  0  0  0  0  0  0  0  0  0  0
    7.3742   -3.9033   24.0355 H   0  0  0  0  0  0  0  0  0  0  0  0
    5.8522   -4.1132   26.9481 H   0  0  0  0  0  0  0  0  0  0  0  0
    5.9946   -5.3456   25.6644 H   0  0  0  0  0  0  0  0  0  0  0  0
    6.5361   -5.7375   27.3216 H   0  0  0  0  0  0  0  0  0  0  0  0
   10.7335   -0.8228   25.1235 H   0  0  0  0  0  0  0  0  0  0  0  0
   10.1285    0.6954   24.5328 H   0  0  0  0  0  0  0  0  0  0  0  0
   12.1837    1.5558   24.1097 H   0  0  0  0  0  0  0  0  0  0  0  0
   12.5663    0.4131   25.3752 H   0  0  0  0  0  0  0  0  0  0  0  0
   14.0985   -0.4291   24.1241 H   0  0  0  0  0  0  0  0  0  0  0  0
   13.6857    0.6996   22.8481 H   0  0  0  0  0  0  0  0  0  0  0  0
   13.2075   -0.9294   21.5408 H   0  0  0  0  0  0  0  0  0  0  0  0
   13.6189   -2.0647   22.8159 H   0  0  0  0  0  0  0  0  0  0  0  0
   11.5567   -2.6789   23.2023 H   0  0  0  0  0  0  0  0  0  0  0  0
   11.3635   -2.1563   21.5464 H   0  0  0  0  0  0  0  0  0  0  0  0
  1  2  1  0
  2  3  4  0
  3  4  4  0
  4  5  4  0
  5  6  4  0
  6  7  4  0
  7  8  1  0
  8  9  1  0
  9 10  2  0
  9 11  1  0
 11 12  1  0
 12 13  1  0
 13 14  1  0
 14 15  1  0
 15 16  1  0
 15 17  2  0
 15 18  2  0
 11 19  1  0
 19 20  1  0
 20 21  1  0
 21 22  1  0
 22 23  1  0
  7  2  4  0
 23 11  1  0
  1 24  1  0
  1 25  1  0
  1 26  1  0
  3 27  1  0
  4 28  1  0
  6 29  1  0
  8 30  1  0
 12 31  1  0
 12 32  1  0
 13 33  1  0
 13 34  1  0
 14 35  1  0
 16 36  1  0
 16 37  1  0
 16 38  1  0
 19 39  1  0
 19 40  1  0
 20 41  1  0
 20 42  1  0
 21 43  1  0
 21 44  1  0
 22 45  1  0
 22 46  1  0
 23 47  1  0
 23 48  1  0
M  END
