LIG
     RDKit          3D

 40 41  0  0  0  0  0  0  0  0999 V2000
   13.6250   -2.3810   24.3190 C   0  0  0  0  0  0  0  0  0  0  0  0
   13.1350   -1.0850   24.5660 O   0  0  0  0  0  0  0  0  0  0  0  0
   13.2160   -0.1485   23.4975 C   0  0  0  0  0  0  0  0  0  0  0  0
   13.4105   -0.7835   22.6080 O   0  0  0  0  0  3  0  0  0  0  0  0
   11.5830   -1.6930   22.5900 C   0  0  0  0  0  0  0  0  0  0  0  0
   10.6040   -1.1420   23.3930 C   0  0  0  0  0  0  0  0  0  0  0  0
    9.2100   -1.7480   23.3470 C   0  0  0  0  0  0  0  0  0  0  0  0
    9.3140   -3.0270   24.1660 C   0  0  0  0  0  0  0  0  0  0  0  0
    8.0610   -3.5350   24.6620 N   0  0  0  0  0  0  0  0  0  0  0  0
    8.0950   -4.3580   26.1540 S   0  0  0  0  0  6  0  0  0  0  0  0
    6.4340   -4.9520   26.5780 C   0  0  0  0  0  0  0  0  0  0  0  0
    9.0830   -5.4410   26.1700 O   0  0  0  0  0  0  0  0  0  0  0  0
    8.6390   -3.5100   27.2010 O   0  0  0  0  0  0  0  0  0  0  0  0
   11.0920    0.5710   24.2595 C   0  0  0  0  0  0  0  0  0  0  0  0
   10.5980    2.4480   24.3410 C   0  0  0  0  0  0  0  0  0  0  0  0
   11.1470    3.5810   23.7500 C   0  0  0  0  0  0  0  0  0  0  0  0
   10.2820    5.1680   23.8420 S   0  0  0  0  0  6  0  0  0  0  0  0
    8.8600    5.1380   22.8970 N   0  0  0  0  0  0  0  0  0  0  0  0
   11.1550    6.2720   23.4300 O   0  0  0  0  0  0  0  0  0  0  0  0
    9.9940    5.5050   25.2370 O   0  0  0  0  0  0  0  0  0  0  0  0
   12.3650    3.5080   23.0890 C   0  0  0  0  0  0  0  0  0  0  0  0
   13.0360    2.3020   23.0200 C   0  0  0  0  0  0  0  0  0  0  0  0
   12.3455    0.7890   23.9410 C   0  0  0  0  0  0  0  0  0  0  0  0
   14.6468   -2.4959   24.6999 H   0  0  0  0  0  0  0  0  0  0  0  0
   13.6522   -2.5332   23.2374 H   0  0  0  0  0  0  0  0  0  0  0  0
   12.9689   -3.1547   24.7440 H   0  0  0  0  0  0  0  0  0  0  0  0
   11.6978   -2.4044   21.8897 H   0  0  0  0  0  0  0  0  0  0  0  0
    8.9552   -1.9819   22.3465 H   0  0  0  0  0  0  0  0  0  0  0  0
    8.4865   -1.1040   23.7503 H   0  0  0  0  0  0  0  0  0  0  0  0
    9.8051   -3.8181   23.5542 H   0  0  0  0  0  0  0  0  0  0  0  0
   10.0232   -2.8742   25.0078 H   0  0  0  0  0  0  0  0  0  0  0  0
    7.1866   -3.4183   24.2274 H   0  0  0  0  0  0  0  0  0  0  0  0
    6.3668   -6.0056   26.3111 H   0  0  0  0  0  0  0  0  0  0  0  0
    6.5742   -5.7506   27.3005 H   0  0  0  0  0  0  0  0  0  0  0  0
    6.2784   -4.7861   27.6437 H   0  0  0  0  0  0  0  0  0  0  0  0
    9.7378    2.4728   25.0386 H   0  0  0  0  0  0  0  0  0  0  0  0
    9.0770    5.3267   21.9216 H   0  0  0  0  0  0  0  0  0  0  0  0
    8.9246    4.5703   22.0657 H   0  0  0  0  0  0  0  0  0  0  0  0
   12.8078    4.4096   22.6427 H   0  0  0  0  0  0  0  0  0  0  0  0
   13.9051    2.0441   22.5563 H   0  0  0  0  0  0  0  0  0  0  0  0
  1  2  1  0
  2  3  1  0
  3  4  4  0
  4  5  4  0
  5  6  4  0
  6  7  1  0
  7  8  1  0
  8  9  1  0
  9 10  1  0
 10 11  1  0
 10 12  2  0
 10 13  2  0
  6 14  4  0
 14 15  4  0
 15 16  4  0
 16 17  1  0
 17 18  1  0
 17 19  2  0
 17 20  2  0
 16 21  4  0
 21 22  4  0
 22 23  4  0
 23  3  4  0
 23 14  4  0
  1 24  1  0
  1 25  1  0
  1 26  1  0
  5 27  1  0
  7 28  1  0
  7 29  1  0
  8 30  1  0
  8 31  1  0
  9 32  1  0
 11 33  1  0
 11 34  1  0
 11 35  1  0
 15 36  1  0
 18 37  1  0
 18 38  1  0
 21 39  1  0
 22 40  1  0
M  CHG  1   4   1
M  END
