
     RDKit          3D

 31 32  0  0  0  0  0  0  0  0999 V2000
    6.3950   -5.1170   26.1330 C   0  0  0  0  0  0  0  0  0  0  0  0
    8.0300   -4.4350   26.2630 S   0  0  1  0  0  0  0  0  0  0  0  0
    8.1530   -3.7660   27.5280 O   0  0  0  0  0  0  0  0  0  0  0  0
    8.9930   -5.4140   25.8660 O   0  0  0  0  0  0  0  0  0  0  0  0
   10.2860   -4.8710   25.9700 C   0  0  0  0  0  0  0  0  0  0  0  0
   10.5220   -3.6790   25.2600 C   0  0  0  0  0  0  0  0  0  0  0  0
    9.3350   -2.7860   24.9210 C   0  0  1  0  0  0  0  0  0  0  0  0
    9.5830   -2.1550   23.5960 C   0  0  0  0  0  0  0  0  0  0  0  0
   10.7030   -1.3790   23.4070 C   0  0  0  0  0  0  0  0  0  0  0  0
   11.6720   -1.9590   22.3950 C   0  0  0  0  0  0  0  0  0  0  0  0
   12.8420   -1.2080   22.1680 C   0  0  0  0  0  0  0  0  0  0  0  0
   13.1250    0.0890   22.8700 C   0  0  0  0  0  0  0  0  0  0  0  0
   12.0600    0.5430   23.8540 C   0  0  0  0  0  0  0  0  0  0  0  0
   10.9180   -0.1830   24.0890 C   0  0  0  0  0  0  0  0  0  0  0  0
    8.0980   -3.2910   25.0280 N   0  0  0  0  0  0  0  0  0  0  0  0
    6.1380   -5.2170   25.0730 H   0  0  0  0  0  0  0  0  0  0  0  0
    5.6800   -4.4390   26.6090 H   0  0  0  0  0  0  0  0  0  0  0  0
    6.3680   -6.1010   26.6140 H   0  0  0  0  0  0  0  0  0  0  0  0
   10.9430   -5.6420   25.5710 H   0  0  0  0  0  0  0  0  0  0  0  0
   10.5210   -4.7270   27.0300 H   0  0  0  0  0  0  0  0  0  0  0  0
   11.2740   -3.1090   25.8030 H   0  0  0  0  0  0  0  0  0  0  0  0
   11.0130   -3.9220   24.3150 H   0  0  0  0  0  0  0  0  0  0  0  0
    9.3410   -1.9610   25.6310 H   0  0  0  0  0  0  0  0  0  0  0  0
    9.6250   -2.9570   22.8440 H   0  0  0  0  0  0  0  0  0  0  0  0
    8.7080   -1.5620   23.3040 H   0  0  0  0  0  0  0  0  0  0  0  0
   11.4970   -2.8910   21.8670 H   0  0  0  0  0  0  0  0  0  0  0  0
   13.5710   -1.5830   21.4500 H   0  0  0  0  0  0  0  0  0  0  0  0
   14.0170    0.6950   22.7120 H   0  0  0  0  0  0  0  0  0  0  0  0
   12.2870    1.4830   24.3450 H   0  0  0  0  0  0  0  0  0  0  0  0
   10.1940    0.1970   24.8110 H   0  0  0  0  0  0  0  0  0  0  0  0
    7.4430   -2.5490   25.2650 H   0  0  0  0  0  0  0  0  0  0  0  0
  2  1  1  1
  2  3  2  0
  2  4  2  0
  4  5  1  0
  5  6  1  0
  6  7  1  0
  7  8  1  0
  8  9  1  0
  9 10  2  0
 10 11  1  0
 11 12  2  0
 12 13  1  0
  9 14  1  0
 13 14  2  0
  2 15  1  0
  7 15  1  0
  1 16  1  0
  1 17  1  0
  1 18  1  0
  5 19  1  0
  5 20  1  0
  6 21  1  0
  6 22  1  0
  7 23  1  1
  8 24  1  0
  8 25  1  0
 10 26  1  0
 11 27  1  0
 12 28  1  0
 13 29  1  0
 14 30  1  0
 15 31  1  0
M  CHG  1   4   1
M  END
