LIG
     RDKit          3D

 47 48  0  0  0  0  0  0  0  0999 V2000
    6.4340   -4.9520   26.5780 C   0  0  0  0  0  0  0  0  0  0  0  0
    8.0950   -4.3580   26.1540 S   0  0  0  0  0  6  0  0  0  0  0  0
    9.0830   -5.4410   26.1700 O   0  0  0  0  0  0  0  0  0  0  0  0
    8.6390   -3.5100   27.2010 O   0  0  0  0  0  0  0  0  0  0  0  0
    8.0610   -3.5350   24.6620 N   0  0  0  0  0  0  0  0  0  0  0  0
    9.3140   -3.0270   24.1660 C   0  0  0  0  0  0  0  0  0  0  0  0
    9.2100   -1.7480   23.3470 C   0  0  0  0  0  0  0  0  0  0  0  0
   10.5230   -0.9805   23.5410 C   0  0  0  0  0  0  0  0  0  0  0  0
   11.4325   -1.5455   22.6680 C   0  0  0  0  0  0  0  0  0  0  0  0
   12.6550   -0.9620   22.4895 C   0  0  0  0  0  0  0  0  0  0  0  0
   13.2800   -1.3010   21.3800 C   0  0  0  0  0  0  0  0  0  0  0  0
   13.9850   -1.7380   20.5810 N   0  0  0  0  0  0  0  0  0  0  0  0
   12.9740    0.1850   23.1925 C   0  0  0  0  0  0  0  0  0  0  0  0
   12.0575    0.7520   24.0650 C   0  0  0  0  0  0  0  0  0  0  0  0
   10.8325    0.1670   24.2470 C   0  0  0  0  0  0  0  0  0  0  0  0
    9.8330    1.0540   25.2470 C   0  0  0  0  0  0  0  0  0  0  0  0
    8.4500    0.7150   24.9220 N   0  0  0  0  0  0  0  0  0  0  0  0
    7.7030    1.4680   24.0150 C   0  0  0  0  0  0  0  0  0  0  0  0
    8.1720    2.4660   23.4420 O   0  0  0  0  0  0  0  0  0  0  0  0
    6.3360    0.9640   23.8050 N   0  0  0  0  0  0  0  0  0  0  0  0
    5.4800    0.8530   25.0320 C   0  0  0  0  0  0  0  0  0  0  0  0
    4.0500    0.3480   24.7320 C   0  0  0  0  0  0  0  0  0  0  0  0
    3.4750    1.0690   23.6570 O   0  0  0  0  0  0  0  0  0  0  0  0
    4.2210    1.0320   22.4570 C   0  0  0  0  0  0  0  0  0  0  0  0
    5.6140    1.6470   22.6990 C   0  0  0  0  0  0  0  0  0  0  0  0
    6.5392   -5.7868   27.2685 H   0  0  0  0  0  0  0  0  0  0  0  0
    5.9632   -5.2822   25.6544 H   0  0  0  0  0  0  0  0  0  0  0  0
    5.8777   -4.1281   27.0182 H   0  0  0  0  0  0  0  0  0  0  0  0
    7.3715   -3.9042   24.0231 H   0  0  0  0  0  0  0  0  0  0  0  0
   10.0245   -2.8772   25.0191 H   0  0  0  0  0  0  0  0  0  0  0  0
    9.8103   -3.8172   23.5438 H   0  0  0  0  0  0  0  0  0  0  0  0
    9.0780   -1.9956   22.3042 H   0  0  0  0  0  0  0  0  0  0  0  0
    8.3772   -1.1283   23.6315 H   0  0  0  0  0  0  0  0  0  0  0  0
   11.1815   -2.4594   22.1262 H   0  0  0  0  0  0  0  0  0  0  0  0
   13.9552    0.6561   23.0705 H   0  0  0  0  0  0  0  0  0  0  0  0
   12.3311    1.6584   24.6017 H   0  0  0  0  0  0  0  0  0  0  0  0
   10.1173    0.7948   26.2398 H   0  0  0  0  0  0  0  0  0  0  0  0
   10.0010    2.0890   25.0810 H   0  0  0  0  0  0  0  0  0  0  0  0
    8.2127   -0.2684   24.9602 H   0  0  0  0  0  0  0  0  0  0  0  0
    5.4119    1.8205   25.5371 H   0  0  0  0  0  0  0  0  0  0  0  0
    5.9998    0.1469   25.6929 H   0  0  0  0  0  0  0  0  0  0  0  0
    4.0898   -0.7080   24.4619 H   0  0  0  0  0  0  0  0  0  0  0  0
    3.4178    0.4469   25.6192 H   0  0  0  0  0  0  0  0  0  0  0  0
    4.3313   -0.0039   22.1463 H   0  0  0  0  0  0  0  0  0  0  0  0
    3.6934    1.5754   21.6725 H   0  0  0  0  0  0  0  0  0  0  0  0
    5.5192    2.7167   22.8925 H   0  0  0  0  0  0  0  0  0  0  0  0
    6.2388    1.5107   21.8126 H   0  0  0  0  0  0  0  0  0  0  0  0
  1  2  1  0
  2  3  2  0
  2  4  2  0
  2  5  1  0
  5  6  1  0
  6  7  1  0
  7  8  1  0
  8  9  4  0
  9 10  4  0
 10 11  1  0
 11 12  3  0
 10 13  4  0
 13 14  4  0
 14 15  4  0
 15 16  1  0
 16 17  1  0
 17 18  1  0
 18 19  2  0
 18 20  1  0
 20 21  1  0
 21 22  1  0
 22 23  1  0
 23 24  1  0
 24 25  1  0
 15  8  4  0
 25 20  1  0
  1 26  1  0
  1 27  1  0
  1 28  1  0
  5 29  1  0
  6 30  1  0
  6 31  1  0
  7 32  1  0
  7 33  1  0
  9 34  1  0
 13 35  1  0
 14 36  1  0
 16 37  1  0
 16 38  1  0
 17 39  1  0
 21 40  1  0
 21 41  1  0
 22 42  1  0
 22 43  1  0
 24 44  1  0
 24 45  1  0
 25 46  1  0
 25 47  1  0
M  END
