
     RDKit          3D

 46 47  0  0  0  0  0  0  0  0999 V2000
    9.8560   -0.6770   22.4730 C   0  0  0  0  0  0  0  0  0  0  0  0
    8.8990    0.0560   21.5700 C   0  0  0  0  0  0  0  0  0  0  0  0
    9.0780    1.2450   21.2520 O   0  0  0  0  0  0  0  0  0  0  0  0
    7.8160   -0.7070   21.1520 N   0  0  0  0  0  0  0  0  0  0  0  0
    6.8180   -0.1440   20.2590 C   0  0  0  0  0  0  0  0  0  0  0  0
    7.1180   -0.2310   18.7790 C   0  0  0  0  0  0  0  0  0  0  0  0
    6.1650    0.3400   17.8340 N   0  0  0  0  0  0  0  0  0  0  0  0
    4.9350    0.9800   18.3090 C   0  0  0  0  0  0  0  0  0  0  0  0
    4.6650    1.0380   19.6580 C   0  0  0  0  0  0  0  0  0  0  0  0
    5.6270    0.4590   20.6740 C   0  0  0  0  0  0  0  0  0  0  0  0
    5.1860    0.6040   22.0040 C   0  0  0  0  0  0  0  0  0  0  0  0
    5.1820    1.9640   22.6480 C   0  0  0  0  0  0  0  0  0  0  0  0
    3.9710    2.6350   22.5920 N   0  0  0  0  0  0  0  0  0  0  0  0
    2.7680    2.3590   23.4140 C   0  0  0  0  0  0  0  0  0  0  0  0
    2.7270    1.4610   24.2580 O   0  0  0  0  0  0  0  0  0  0  0  0
    1.7410    3.2250   23.1030 N   0  0  0  0  0  0  0  0  0  0  0  0
    0.6920    3.3970   23.8880 C   0  0  1  0  0  0  0  0  0  0  0  0
    0.4860    4.6150   24.5430 C   0  0  0  0  0  0  0  0  0  0  0  0
   -0.7760    4.9210   25.0400 C   0  0  0  0  0  0  0  0  0  0  0  0
   -1.8460    4.5880   24.2140 C   0  0  0  0  0  0  0  0  0  0  0  0
   -1.8030    3.2550   23.7590 C   0  0  0  0  0  0  0  0  0  0  0  0
   -0.4260    2.9340   23.1780 C   0  0  0  0  0  0  0  0  0  0  0  0
    9.3550   -1.0680   23.3620 H   0  0  0  0  0  0  0  0  0  0  0  0
   10.2870   -1.5190   21.9220 H   0  0  0  0  0  0  0  0  0  0  0  0
   10.6520    0.0060   22.7840 H   0  0  0  0  0  0  0  0  0  0  0  0
    7.6110   -1.5790   21.6200 H   0  0  0  0  0  0  0  0  0  0  0  0
    8.0010   -0.6880   18.3510 H   0  0  0  0  0  0  0  0  0  0  0  0
    4.3350    1.3600   17.5080 H   0  0  0  0  0  0  0  0  0  0  0  0
    3.7420    1.5110   20.0070 H   0  0  0  0  0  0  0  0  0  0  0  0
    4.1340    0.2990   21.9950 H   0  0  0  0  0  0  0  0  0  0  0  0
    5.7230   -0.1680   22.5560 H   0  0  0  0  0  0  0  0  0  0  0  0
    5.4580    1.8480   23.7040 H   0  0  0  0  0  0  0  0  0  0  0  0
    5.9600    2.5820   22.1830 H   0  0  0  0  0  0  0  0  0  0  0  0
    3.9210    3.3770   21.8920 H   0  0  0  0  0  0  0  0  0  0  0  0
    1.5950    3.3600   22.1130 H   0  0  0  0  0  0  0  0  0  0  0  0
    0.8480    2.6780   24.6950 H   0  0  0  0  0  0  0  0  0  0  0  0
    0.7390    5.4180   23.8480 H   0  0  0  0  0  0  0  0  0  0  0  0
    1.1820    4.6410   25.3900 H   0  0  0  0  0  0  0  0  0  0  0  0
   -0.9350    4.6310   26.0800 H   0  0  0  0  0  0  0  0  0  0  0  0
   -0.8020    6.0160   25.1020 H   0  0  0  0  0  0  0  0  0  0  0  0
   -2.7270    4.6280   24.8670 H   0  0  0  0  0  0  0  0  0  0  0  0
   -2.0860    5.3380   23.4660 H   0  0  0  0  0  0  0  0  0  0  0  0
   -2.0520    2.4550   24.4640 H   0  0  0  0  0  0  0  0  0  0  0  0
   -2.5430    3.1570   22.9560 H   0  0  0  0  0  0  0  0  0  0  0  0
   -0.2040    1.8990   22.9370 H   0  0  0  0  0  0  0  0  0  0  0  0
   -0.4030    3.4200   22.1940 H   0  0  0  0  0  0  0  0  0  0  0  0
  1  2  1  0
  2  3  2  0
  2  4  1  0
  4  5  1  0
  5  6  2  0
  6  7  1  0
  7  8  2  0
  8  9  1  0
  5 10  1  0
  9 10  2  0
 10 11  1  0
 11 12  1  0
 12 13  1  0
 13 14  1  0
 14 15  2  0
 14 16  1  0
 16 17  1  0
 17 18  1  0
 18 19  1  0
 19 20  1  0
 20 21  1  0
 17 22  1  0
 21 22  1  0
  1 23  1  0
  1 24  1  0
  1 25  1  0
  4 26  1  0
  6 27  1  0
  8 28  1  0
  9 29  1  0
 11 30  1  0
 11 31  1  0
 12 32  1  0
 12 33  1  0
 13 34  1  0
 16 35  1  0
 17 36  1  1
 18 37  1  0
 18 38  1  0
 19 39  1  0
 19 40  1  0
 20 41  1  0
 20 42  1  0
 21 43  1  0
 21 44  1  0
 22 45  1  0
 22 46  1  0
M  END
