
     RDKit          3D

 40 42  0  0  0  0  0  0  0  0999 V2000
    8.9760    6.6880   22.5410 C   0  0  0  0  0  0  0  0  0  0  0  0
   10.1560    6.2630   23.3760 C   0  0  0  0  0  0  0  0  0  0  0  0
   10.1760    6.3670   24.6010 O   0  0  0  0  0  0  0  0  0  0  0  0
   11.1840    5.7480   22.6390 N   0  0  0  0  0  0  0  0  0  0  0  0
   12.3890    5.2620   23.2870 C   0  0  0  0  0  0  0  0  0  0  0  0
   12.7660    3.8550   22.8360 C   0  0  0  0  0  0  0  0  0  0  0  0
   11.7110    2.8160   23.0980 C   0  0  0  0  0  0  0  0  0  0  0  0
   10.4420    3.0920   23.5520 C   0  0  0  0  0  0  0  0  0  0  0  0
    9.7390    1.9290   23.6170 N   0  0  0  0  0  0  0  0  0  0  0  0
   10.5160    0.8780   23.2150 C   0  0  0  0  0  0  0  0  0  0  0  0
   10.1840   -0.4670   23.0900 C   0  0  0  0  0  0  0  0  0  0  0  0
    8.7830   -0.9570   23.3850 C   0  0  0  0  0  0  0  0  0  0  0  0
    8.6960   -2.1120   24.3630 C   0  0  0  0  0  0  0  0  0  0  0  0
    8.1210   -1.8670   25.6800 N   0  0  0  0  0  0  0  0  0  0  0  0
    8.1580   -3.0540   26.3860 N   0  0  0  0  0  0  0  0  0  0  0  0
    8.6950   -4.0680   25.7020 C   0  0  0  0  0  0  0  0  0  0  0  0
    8.8720   -5.3650   26.2050 C   0  0  0  0  0  0  0  0  0  0  0  0
    9.2000   -3.6970   24.1030 S   0  0  0  0  0  0  0  0  0  0  0  0
   11.1760   -1.3680   22.6580 C   0  0  0  0  0  0  0  0  0  0  0  0
   12.4770   -0.9690   22.3670 C   0  0  0  0  0  0  0  0  0  0  0  0
   13.3810   -1.8600   21.9680 F   0  0  0  0  0  0  0  0  0  0  0  0
   12.8470    0.3890   22.4810 C   0  0  0  0  0  0  0  0  0  0  0  0
   11.7730    1.3860   22.9180 C   0  0  0  0  0  0  0  0  0  0  0  0
    8.3130    7.3570   23.0900 H   0  0  0  0  0  0  0  0  0  0  0  0
    8.4070    5.8020   22.2450 H   0  0  0  0  0  0  0  0  0  0  0  0
    9.3420    7.2010   21.6520 H   0  0  0  0  0  0  0  0  0  0  0  0
   10.9790    5.4760   21.6740 H   0  0  0  0  0  0  0  0  0  0  0  0
   13.2040    5.9620   23.0680 H   0  0  0  0  0  0  0  0  0  0  0  0
   12.2140    5.2900   24.3700 H   0  0  0  0  0  0  0  0  0  0  0  0
   13.7040    3.5800   23.2500 H   0  0  0  0  0  0  0  0  0  0  0  0
   12.9380    3.8870   21.7570 H   0  0  0  0  0  0  0  0  0  0  0  0
    9.9710    4.0280   23.8230 H   0  0  0  0  0  0  0  0  0  0  0  0
    8.7740    1.8480   23.9090 H   0  0  0  0  0  0  0  0  0  0  0  0
    8.1820   -0.1200   23.7550 H   0  0  0  0  0  0  0  0  0  0  0  0
    8.3180   -1.2650   22.4390 H   0  0  0  0  0  0  0  0  0  0  0  0
    9.8090   -5.7760   25.8270 H   0  0  0  0  0  0  0  0  0  0  0  0
    8.1020   -6.1010   26.0170 H   0  0  0  0  0  0  0  0  0  0  0  0
    8.9830   -5.3140   27.2900 H   0  0  0  0  0  0  0  0  0  0  0  0
   11.0150   -2.4360   22.5210 H   0  0  0  0  0  0  0  0  0  0  0  0
   13.8810    0.6220   22.2330 H   0  0  0  0  0  0  0  0  0  0  0  0
  1  2  1  0
  2  3  2  0
  2  4  1  0
  4  5  1  0
  5  6  1  0
  6  7  1  0
  7  8  2  0
  8  9  1  0
  9 10  1  0
 10 11  1  0
 11 12  1  0
 12 13  1  0
 13 14  2  0
 14 15  1  0
 15 16  2  0
 16 17  1  0
 13 18  1  0
 16 18  1  0
 11 19  2  0
 19 20  1  0
 20 21  1  0
 20 22  2  0
  7 23  1  0
 10 23  2  0
 22 23  1  0
  1 24  1  0
  1 25  1  0
  1 26  1  0
  4 27  1  0
  5 28  1  0
  5 29  1  0
  6 30  1  0
  6 31  1  0
  8 32  1  0
  9 33  1  0
 12 34  1  0
 12 35  1  0
 17 36  1  0
 17 37  1  0
 17 38  1  0
 19 39  1  0
 22 40  1  0
M  END
