
     RDKit          3D

 48 50  0  0  0  0  0  0  0  0999 V2000
    5.8060    0.8440   22.3180 C   0  0  0  0  0  0  0  0  0  0  0  0
    6.0890    0.5760   20.8680 C   0  0  0  0  0  0  0  0  0  0  0  0
    5.2500    1.1860   19.9130 C   0  0  0  0  0  0  0  0  0  0  0  0
    5.5260    0.9130   18.4420 C   0  0  0  0  0  0  0  0  0  0  0  0
    6.5290    0.1160   18.0680 N   0  0  0  0  0  0  0  0  0  0  0  0
    7.3020   -0.4450   19.0510 C   0  0  0  0  0  0  0  0  0  0  0  0
    7.1470   -0.2580   20.4230 C   0  0  0  0  0  0  0  0  0  0  0  0
    8.0780   -0.9510   21.2410 N   0  0  0  0  0  0  0  0  0  0  0  0
    9.1560   -0.2340   21.8430 C   0  0  0  0  0  0  0  0  0  0  0  0
    9.3090    0.9340   21.4900 O   0  0  0  0  0  0  0  0  0  0  0  0
   10.1020   -0.7160   22.8750 C   0  0  2  0  0  0  0  0  0  0  0  0
    9.5280   -1.2590   24.1920 C   0  0  0  0  0  0  0  0  0  0  0  0
    9.3550   -2.6270   24.4300 N   0  0  0  0  0  0  0  0  0  0  0  0
    8.1040   -3.1600   25.0180 C   0  0  0  0  0  0  0  0  0  0  0  0
    8.0360   -4.4240   25.5690 C   0  0  0  0  0  0  0  0  0  0  0  0
    9.1630   -4.8260   26.2700 C   0  0  2  0  0  0  0  0  0  0  0  0
    9.0770   -4.2030   27.5450 O   0  0  0  0  0  0  0  0  0  0  0  0
   10.3940   -4.4250   25.7540 C   0  0  0  0  0  0  0  0  0  0  0  0
   10.5170   -3.1430   25.1740 C   0  0  0  0  0  0  0  0  0  0  0  0
   11.1030    0.2690   23.1810 C   0  0  0  0  0  0  0  0  0  0  0  0
   12.5840   -0.0880   23.3110 C   0  0  0  0  0  0  0  0  0  0  0  0
   12.7340   -1.5000   22.2220 S   0  0  0  0  0  0  0  0  0  0  0  0
   10.9520   -1.8950   22.2820 C   0  0  0  0  0  0  0  0  0  0  0  0
    5.2890    1.7970   22.4580 H   0  0  0  0  0  0  0  0  0  0  0  0
    6.7500    0.8810   22.8660 H   0  0  0  0  0  0  0  0  0  0  0  0
    5.1800    0.0390   22.7120 H   0  0  0  0  0  0  0  0  0  0  0  0
    4.4270    1.8340   20.1940 H   0  0  0  0  0  0  0  0  0  0  0  0
    4.9250    1.3490   17.6460 H   0  0  0  0  0  0  0  0  0  0  0  0
    8.0800   -1.0760   18.6400 H   0  0  0  0  0  0  0  0  0  0  0  0
    8.2600   -1.9110   20.9840 H   0  0  0  0  0  0  0  0  0  0  0  0
   10.1110   -0.8360   25.0230 H   0  0  0  0  0  0  0  0  0  0  0  0
    8.5320   -0.8130   24.3220 H   0  0  0  0  0  0  0  0  0  0  0  0
    7.8000   -2.4180   25.7640 H   0  0  0  0  0  0  0  0  0  0  0  0
    7.3450   -3.1400   24.2350 H   0  0  0  0  0  0  0  0  0  0  0  0
    7.9200   -5.1130   24.7220 H   0  0  0  0  0  0  0  0  0  0  0  0
    7.0840   -4.5360   26.0910 H   0  0  0  0  0  0  0  0  0  0  0  0
    9.1430   -5.8790   26.5440 H   0  0  0  0  0  0  0  0  0  0  0  0
    8.4240   -4.7010   28.0670 H   0  0  0  0  0  0  0  0  0  0  0  0
   10.7180   -5.0780   24.9610 H   0  0  0  0  0  0  0  0  0  0  0  0
   11.1950   -4.5870   26.4760 H   0  0  0  0  0  0  0  0  0  0  0  0
   11.4230   -3.0900   24.5600 H   0  0  0  0  0  0  0  0  0  0  0  0
   10.6930   -2.4260   25.9700 H   0  0  0  0  0  0  0  0  0  0  0  0
   10.8140    0.7280   24.1290 H   0  0  0  0  0  0  0  0  0  0  0  0
   11.0460    1.0910   22.4610 H   0  0  0  0  0  0  0  0  0  0  0  0
   13.1860    0.7420   22.9210 H   0  0  0  0  0  0  0  0  0  0  0  0
   13.0110   -0.3520   24.2740 H   0  0  0  0  0  0  0  0  0  0  0  0
   10.8710   -2.7820   22.8950 H   0  0  0  0  0  0  0  0  0  0  0  0
   10.6210   -2.1770   21.2830 H   0  0  0  0  0  0  0  0  0  0  0  0
  1  2  1  0
  2  3  2  0
  3  4  1  0
  4  5  2  0
  5  6  1  0
  2  7  1  0
  6  7  2  0
  7  8  1  0
  8  9  1  0
  9 10  2  0
 11  9  1  6
 11 12  1  0
 12 13  1  0
 13 14  1  0
 14 15  1  0
 15 16  1  0
 16 17  1  0
 16 18  1  0
 13 19  1  0
 18 19  1  0
 11 20  1  0
 20 21  1  0
 21 22  1  0
 11 23  1  0
 22 23  1  0
  1 24  1  0
  1 25  1  0
  1 26  1  0
  3 27  1  0
  4 28  1  0
  6 29  1  0
  8 30  1  0
 12 31  1  0
 12 32  1  0
 14 33  1  0
 14 34  1  0
 15 35  1  0
 15 36  1  0
 16 37  1  1
 17 38  1  0
 18 39  1  0
 18 40  1  0
 19 41  1  0
 19 42  1  0
 20 43  1  0
 20 44  1  0
 21 45  1  0
 21 46  1  0
 23 47  1  0
 23 48  1  0
M  END
