LIG
     RDKit          3D

 30 31  0  0  0  0  0  0  0  0999 V2000
    5.3930    0.6630   21.8670 C   0  0  0  0  0  0  0  0  0  0  0  0
    5.6170    0.6145   20.2720 C   0  0  0  0  0  0  0  0  0  0  0  0
    4.9165    1.2125   19.2345 C   0  0  0  0  0  0  0  0  0  0  0  0
    5.4395    1.1335   17.9525 C   0  0  0  0  0  0  0  0  0  0  0  0
    6.5810    0.5355   17.7050 N   0  0  0  0  0  0  0  0  0  0  0  0
    7.2745   -0.0340   18.6595 C   0  0  0  0  0  0  0  0  0  0  0  0
    6.8175   -0.0125   19.9645 C   0  0  0  0  0  0  0  0  0  0  0  0
    7.5850   -0.6460   21.0090 N   0  0  0  0  0  0  0  0  0  0  0  0
    8.8615   -0.1085   21.4110 C   0  0  0  0  0  0  0  0  0  0  0  0
    9.2995    0.8560   20.8955 O   0  0  0  0  0  0  0  0  0  0  0  0
    9.2320   -0.9350   22.4160 N   0  0  0  0  0  0  0  0  0  0  0  0
   10.2735   -0.5400   22.6825 C   0  0  0  0  0  0  0  0  0  0  0  0
   10.5550    0.3780   23.9180 C   0  0  0  0  0  0  0  0  0  0  0  0
   11.7600    0.8910   24.3310 C   0  0  0  0  0  0  0  0  0  0  0  0
   12.9190    0.5770   23.6360 C   0  0  0  0  0  0  0  0  0  0  0  0
   12.8740   -0.2570   22.5320 C   0  0  0  0  0  0  0  0  0  0  0  0
   11.6620   -0.7700   22.1120 C   0  0  0  0  0  0  0  0  0  0  0  0
    4.6815    1.4374   22.0976 H   0  0  0  0  0  0  0  0  0  0  0  0
    5.6878    1.6412   22.2084 H   0  0  0  0  0  0  0  0  0  0  0  0
    6.3432    0.8856   22.3231 H   0  0  0  0  0  0  0  0  0  0  0  0
    3.9816    1.7345   19.3933 H   0  0  0  0  0  0  0  0  0  0  0  0
    4.9185    1.5637   17.1109 H   0  0  0  0  0  0  0  0  0  0  0  0
    8.1786   -0.5090   18.3585 H   0  0  0  0  0  0  0  0  0  0  0  0
    7.1926   -1.3114   21.5580 H   0  0  0  0  0  0  0  0  0  0  0  0
    8.7594   -1.6908   22.5811 H   0  0  0  0  0  0  0  0  0  0  0  0
    9.6389    0.6181   24.5143 H   0  0  0  0  0  0  0  0  0  0  0  0
   11.8111    1.5426   25.2023 H   0  0  0  0  0  0  0  0  0  0  0  0
   13.8764    0.9928   23.9666 H   0  0  0  0  0  0  0  0  0  0  0  0
   13.7914   -0.5039   22.0007 H   0  0  0  0  0  0  0  0  0  0  0  0
   11.6760   -1.4613   21.2138 H   0  0  0  0  0  0  0  0  0  0  0  0
  1  2  1  0
  2  3  4  0
  3  4  4  0
  4  5  4  0
  5  6  4  0
  6  7  4  0
  7  8  1  0
  8  9  1  0
  9 10  2  0
  9 11  1  0
 11 12  1  0
 12 13  4  0
 13 14  4  0
 14 15  4  0
 15 16  4  0
 16 17  4  0
  7  2  4  0
 17 12  4  0
  1 18  1  0
  1 19  1  0
  1 20  1  0
  3 21  1  0
  4 22  1  0
  6 23  1  0
  8 24  1  0
 11 25  1  0
 13 26  1  0
 14 27  1  0
 15 28  1  0
 16 29  1  0
 17 30  1  0
M  END
