LIG
     RDKit          3D

 48 50  0  0  0  0  0  0  0  0999 V2000
    8.9920    6.2370   22.6120 C   0  0  0  0  0  0  0  0  0  0  0  0
   10.2740    5.9430   23.3830 C   0  0  0  0  0  0  0  0  0  0  0  0
   10.3130    6.1380   24.5460 O   0  0  0  0  0  0  0  0  0  0  0  0
   11.4270    5.4110   22.6760 N   0  0  0  0  0  0  0  0  0  0  0  0
   12.6680    5.0840   23.3500 C   0  0  0  0  0  0  0  0  0  0  0  0
   13.0500    3.6550   22.9570 C   0  0  0  0  0  0  0  0  0  0  0  0
   12.0650    2.5700   23.4230 C   0  0  0  0  0  0  0  0  0  0  0  0
   10.9400    2.7480   24.2110 C   0  0  0  0  0  0  0  0  0  0  0  0
   10.3530    1.5710   24.3790 N   0  0  0  0  0  0  0  0  0  0  0  0
   11.5140    0.2825   23.9590 C   0  0  0  0  0  0  0  0  0  0  0  0
   10.9495   -0.9725   23.6380 C   0  0  0  0  0  0  0  0  0  0  0  0
    9.6990   -1.5000   24.2460 C   0  0  0  0  0  0  0  0  0  0  0  0
    9.5440   -2.6880   24.5510 N   0  0  0  0  0  0  0  0  0  0  0  0
    8.3310   -2.8350   25.3360 C   0  0  0  0  0  0  0  0  0  0  0  0
    8.0790   -4.2690   25.8080 C   0  0  0  0  0  0  0  0  0  0  0  0
    9.1820   -4.8160   26.5550 C   0  0  0  0  0  0  0  0  0  0  0  0
    9.3040   -4.2150   27.8200 O   0  0  0  0  0  0  0  0  0  0  0  0
   10.4200   -4.6660   25.8330 C   0  0  0  0  0  0  0  0  0  0  0  0
   10.6550   -3.2590   25.2740 C   0  0  0  0  0  0  0  0  0  0  0  0
   11.7120   -1.6840   22.7140 C   0  0  0  0  0  0  0  0  0  0  0  0
   12.9835   -1.0510   22.2570 C   0  0  0  0  0  0  0  0  0  0  0  0
   13.6800   -1.7440   21.5180 F   0  0  0  0  0  0  0  0  0  0  0  0
   13.1100    0.2020   22.8945 C   0  0  0  0  0  0  0  0  0  0  0  0
   12.1310    1.1860   23.1210 C   0  0  0  0  0  0  0  0  0  0  0  0
    8.1451    6.1203   23.2879 H   0  0  0  0  0  0  0  0  0  0  0  0
    8.3242    5.3755   22.6194 H   0  0  0  0  0  0  0  0  0  0  0  0
    8.9141    5.5319   21.7840 H   0  0  0  0  0  0  0  0  0  0  0  0
   11.4522    5.5839   21.6832 H   0  0  0  0  0  0  0  0  0  0  0  0
   13.4335    5.7668   23.0296 H   0  0  0  0  0  0  0  0  0  0  0  0
   12.4935    5.1679   24.4063 H   0  0  0  0  0  0  0  0  0  0  0  0
   14.0395    3.4121   23.3756 H   0  0  0  0  0  0  0  0  0  0  0  0
   13.1585    3.5744   21.8633 H   0  0  0  0  0  0  0  0  0  0  0  0
   10.5356    3.6605   24.6470 H   0  0  0  0  0  0  0  0  0  0  0  0
    9.5094    1.2293   24.6501 H   0  0  0  0  0  0  0  0  0  0  0  0
    8.8836   -1.1117   23.4964 H   0  0  0  0  0  0  0  0  0  0  0  0
    9.4387   -0.7590   25.1240 H   0  0  0  0  0  0  0  0  0  0  0  0
    7.4789   -2.5133   24.7226 H   0  0  0  0  0  0  0  0  0  0  0  0
    8.3389   -2.1911   26.2274 H   0  0  0  0  0  0  0  0  0  0  0  0
    7.1421   -4.2823   26.4151 H   0  0  0  0  0  0  0  0  0  0  0  0
    7.8174   -4.8973   24.9241 H   0  0  0  0  0  0  0  0  0  0  0  0
    8.9920   -5.9070   26.7559 H   0  0  0  0  0  0  0  0  0  0  0  0
    9.9183   -4.7589   28.3483 H   0  0  0  0  0  0  0  0  0  0  0  0
   11.3120   -4.9372   26.4446 H   0  0  0  0  0  0  0  0  0  0  0  0
   10.4576   -5.3868   24.9846 H   0  0  0  0  0  0  0  0  0  0  0  0
   11.5756   -3.3198   24.6376 H   0  0  0  0  0  0  0  0  0  0  0  0
   10.9669   -2.5763   26.1101 H   0  0  0  0  0  0  0  0  0  0  0  0
   11.4693   -2.6194   22.3237 H   0  0  0  0  0  0  0  0  0  0  0  0
   14.1765    0.4292   23.2762 H   0  0  0  0  0  0  0  0  0  0  0  0
  1  2  1  0
  2  3  2  0
  2  4  1  0
  4  5  1  0
  5  6  1  0
  6  7  1  0
  7  8  4  0
  8  9  4  0
  9 10  4  0
 10 11  4  0
 11 12  1  0
 12 13  1  0
 13 14  1  0
 14 15  1  0
 15 16  1  0
 16 17  1  0
 16 18  1  0
 18 19  1  0
 11 20  4  0
 20 21  4  0
 21 22  1  0
 21 23  4  0
 23 24  4  0
 24  7  4  0
 24 10  4  0
 19 13  1  0
  1 25  1  0
  1 26  1  0
  1 27  1  0
  4 28  1  0
  5 29  1  0
  5 30  1  0
  6 31  1  0
  6 32  1  0
  8 33  1  0
  9 34  1  0
 12 35  1  0
 12 36  1  0
 14 37  1  0
 14 38  1  0
 15 39  1  0
 15 40  1  0
 16 41  1  0
 17 42  1  0
 18 43  1  0
 18 44  1  0
 19 45  1  0
 19 46  1  0
 20 47  1  0
 23 48  1  0
M  END
