LIG
     RDKit          3D

 64 67  0  0  0  0  0  0  0  0999 V2000
    8.9920    6.2370   22.6120 C   0  0  0  0  0  0  0  0  0  0  0  0
   10.2740    5.9430   23.3830 C   0  0  0  0  0  0  0  0  0  0  0  0
   10.3130    6.1380   24.5460 O   0  0  0  0  0  0  0  0  0  0  0  0
   11.4270    5.4110   22.6760 N   0  0  0  0  0  0  0  0  0  0  0  0
   12.6680    5.0840   23.3500 C   0  0  0  0  0  0  0  0  0  0  0  0
   13.0500    3.6550   22.9570 C   0  0  0  0  0  0  0  0  0  0  0  0
   12.0650    2.5700   23.4230 C   0  0  0  0  0  0  0  0  0  0  0  0
   10.9400    2.7480   24.2110 C   0  0  0  0  0  0  0  0  0  0  0  0
   10.3530    1.5710   24.3790 N   0  0  0  0  0  0  0  0  0  0  0  0
   11.0480    0.5960   23.7280 C   0  0  0  0  0  0  0  0  0  0  0  0
   12.1310    1.1860   23.1210 C   0  0  0  0  0  0  0  0  0  0  0  0
   13.0300    0.3840   22.3680 C   0  0  0  0  0  0  0  0  0  0  0  0
   12.8100   -0.9880   22.2450 C   0  0  0  0  0  0  0  0  0  0  0  0
   13.6800   -1.7440   21.5180 F   0  0  0  0  0  0  0  0  0  0  0  0
   10.9545   -1.6545   22.6030 C   0  0  0  0  0  0  0  0  0  0  0  0
   10.1230   -2.7850   23.1640 C   0  0  0  0  0  0  0  0  0  0  0  0
    9.4490   -2.7910   24.4310 C   0  0  0  0  0  0  0  0  0  0  0  0
    9.5290   -3.9700   25.2640 N   0  0  0  0  0  0  0  0  0  0  0  0
    9.8940   -5.2910   24.6800 C   0  0  0  0  0  0  0  0  0  0  0  0
    8.9080   -5.8040   23.6240 C   0  0  0  0  0  0  0  0  0  0  0  0
    7.4420   -5.5890   24.0410 C   0  0  0  0  0  0  0  0  0  0  0  0
    7.3000   -5.8000   25.4420 O   0  0  0  0  0  0  0  0  0  0  0  0
    7.2860   -4.6680   26.2770 C   0  0  0  0  0  0  0  0  0  0  0  0
    8.7010   -4.0730   26.4970 C   0  0  0  0  0  0  0  0  0  0  0  0
    8.8070   -1.5850   24.7810 C   0  0  0  0  0  0  0  0  0  0  0  0
    8.8780   -0.4790   23.9400 C   0  0  0  0  0  0  0  0  0  0  0  0
   10.2040   -0.6930   23.1820 C   0  0  0  0  0  0  0  0  0  0  0  0
    9.7510    0.5640   21.9590 C   0  0  0  0  0  0  0  0  0  0  0  0
    9.8900    1.5270   21.3460 N   0  0  0  0  0  0  0  0  0  0  0  0
    8.5839    5.2946   22.2555 H   0  0  0  0  0  0  0  0  0  0  0  0
    9.0726    5.9116   21.5804 H   0  0  0  0  0  0  0  0  0  0  0  0
    8.1652    5.7229   23.0938 H   0  0  0  0  0  0  0  0  0  0  0  0
   11.3249    5.2615   21.6856 H   0  0  0  0  0  0  0  0  0  0  0  0
   13.4263    5.7637   23.0108 H   0  0  0  0  0  0  0  0  0  0  0  0
   12.5137    5.1696   24.4078 H   0  0  0  0  0  0  0  0  0  0  0  0
   14.0278    3.4443   23.4063 H   0  0  0  0  0  0  0  0  0  0  0  0
   13.1924    3.5792   21.8704 H   0  0  0  0  0  0  0  0  0  0  0  0
   12.8926    2.3686   24.6207 H   0  0  0  0  0  0  0  0  0  0  0  0
   11.1829    3.2407   25.2067 H   0  0  0  0  0  0  0  0  0  0  0  0
   10.1949    3.4724   23.7529 H   0  0  0  0  0  0  0  0  0  0  0  0
   10.2261    1.3254   25.4059 H   0  0  0  0  0  0  0  0  0  0  0  0
   11.5452    0.0481   24.7606 H   0  0  0  0  0  0  0  0  0  0  0  0
   11.3377    1.4091   21.8993 H   0  0  0  0  0  0  0  0  0  0  0  0
   13.1307    0.8605   21.3145 H   0  0  0  0  0  0  0  0  0  0  0  0
   14.1169    0.5577   22.7471 H   0  0  0  0  0  0  0  0  0  0  0  0
   12.2219   -0.6733   20.8187 H   0  0  0  0  0  0  0  0  0  0  0  0
   10.5622   -1.5520   21.4405 H   0  0  0  0  0  0  0  0  0  0  0  0
   10.7770   -3.7690   23.0679 H   0  0  0  0  0  0  0  0  0  0  0  0
    9.3606   -3.0679   22.3028 H   0  0  0  0  0  0  0  0  0  0  0  0
    8.2922   -3.3229   23.8300 H   0  0  0  0  0  0  0  0  0  0  0  0
   10.0489   -6.0466   25.4718 H   0  0  0  0  0  0  0  0  0  0  0  0
   10.8633   -5.1881   24.1645 H   0  0  0  0  0  0  0  0  0  0  0  0
    9.0500   -6.8693   23.4622 H   0  0  0  0  0  0  0  0  0  0  0  0
    9.0908   -5.3063   22.6750 H   0  0  0  0  0  0  0  0  0  0  0  0
    7.1247   -4.6001   23.7884 H   0  0  0  0  0  0  0  0  0  0  0  0
    6.8264   -6.3191   23.5573 H   0  0  0  0  0  0  0  0  0  0  0  0
    6.9127   -4.9993   27.2657 H   0  0  0  0  0  0  0  0  0  0  0  0
    6.5641   -3.8916   25.9376 H   0  0  0  0  0  0  0  0  0  0  0  0
    8.5422   -3.0742   26.8809 H   0  0  0  0  0  0  0  0  0  0  0  0
    9.2200   -4.6705   27.2420 H   0  0  0  0  0  0  0  0  0  0  0  0
    9.1930   -1.2281   25.8223 H   0  0  0  0  0  0  0  0  0  0  0  0
    7.6923   -1.7933   25.0825 H   0  0  0  0  0  0  0  0  0  0  0  0
    8.9617    0.4411   24.4813 H   0  0  0  0  0  0  0  0  0  0  0  0
    8.0789   -0.4198   23.2365 H   0  0  0  0  0  0  0  0  0  0  0  0
  1  2  1  0
  2  3  2  0
  2  4  1  0
  4  5  1  0
  5  6  1  0
  6  7  1  0
  7  8  1  0
  8  9  1  0
  9 10  1  0
 10 11  1  0
 11 12  1  0
 12 13  1  0
 13 14  1  0
 13 15  1  0
 15 16  1  0
 16 17  1  0
 17 18  1  0
 18 19  1  0
 19 20  1  0
 20 21  1  0
 21 22  1  0
 22 23  1  0
 23 24  1  0
 17 25  1  0
 25 26  1  0
 26 27  1  0
 27 28  1  0
 28 29  3  0
 11  7  1  0
 27 15  1  0
 27 10  1  0
 24 18  1  0
  1 30  1  0
  1 31  1  0
  1 32  1  0
  4 33  1  0
  5 34  1  0
  5 35  1  0
  6 36  1  0
  6 37  1  0
  7 38  1  0
  8 39  1  0
  8 40  1  0
  9 41  1  0
 10 42  1  0
 11 43  1  0
 12 44  1  0
 12 45  1  0
 13 46  1  0
 15 47  1  0
 16 48  1  0
 16 49  1  0
 17 50  1  0
 19 51  1  0
 19 52  1  0
 20 53  1  0
 20 54  1  0
 21 55  1  0
 21 56  1  0
 23 57  1  0
 23 58  1  0
 24 59  1  0
 24 60  1  0
 25 61  1  0
 25 62  1  0
 26 63  1  0
 26 64  1  0
M  END
