
     RDKit          3D

 54 57  0  0  0  0  0  0  0  0999 V2000
    9.0740    6.6480   22.5490 C   0  0  0  0  0  0  0  0  0  0  0  0
   10.2690    6.2070   23.3540 C   0  0  0  0  0  0  0  0  0  0  0  0
   10.3430    6.3720   24.5680 O   0  0  0  0  0  0  0  0  0  0  0  0
   11.2450    5.6100   22.5950 N   0  0  0  0  0  0  0  0  0  0  0  0
   12.2980    4.8350   23.2410 C   0  0  0  0  0  0  0  0  0  0  0  0
   12.4520    3.4180   22.6600 C   0  0  0  0  0  0  0  0  0  0  0  0
   11.2710    2.5090   22.9090 C   0  0  2  0  0  0  0  0  0  0  0  0
   10.4490    2.5280   24.0150 C   0  0  0  0  0  0  0  0  0  0  0  0
   10.1310    1.2500   24.4470 N   0  0  0  0  0  0  0  0  0  0  0  0
   10.9580    0.2750   23.9340 C   0  0  1  0  0  0  0  0  0  0  0  0
   12.2770    0.0930   24.1980 C   0  0  0  0  0  0  0  0  0  0  0  0
   12.8390    0.0800   22.8760 C   0  0  1  0  0  0  0  0  0  0  0  0
   12.4850   -1.2600   22.2470 C   0  0  1  0  0  0  0  0  0  0  0  0
   13.3180   -2.1460   22.8400 F   0  0  0  0  0  0  0  0  0  0  0  0
   11.1650   -1.6930   22.5420 C   0  0  0  0  0  0  0  0  0  0  0  0
   10.3540   -0.8960   23.4270 C   0  0  2  0  0  0  0  0  0  0  0  0
    9.0510   -0.6180   22.9690 C   0  0  0  0  0  0  0  0  0  0  0  0
    8.7130    0.1240   21.8110 C   0  0  0  0  0  0  0  0  0  0  0  0
    9.2650    1.1690   21.4250 O   0  0  0  0  0  0  0  0  0  0  0  0
    7.6380   -0.4780   21.1750 N   0  0  0  0  0  0  0  0  0  0  0  0
    6.8260    0.1020   20.1920 C   0  0  0  0  0  0  0  0  0  0  0  0
    5.6350    1.0110   20.4340 C   0  0  0  0  0  0  0  0  0  0  0  0
    4.9440    1.5030   19.3430 C   0  0  0  0  0  0  0  0  0  0  0  0
    5.3550    1.1580   18.0660 C   0  0  0  0  0  0  0  0  0  0  0  0
    6.4030    0.3540   17.8200 N   0  0  0  0  0  0  0  0  0  0  0  0
    7.1020   -0.1510   18.8620 C   0  0  0  0  0  0  0  0  0  0  0  0
   11.5450    0.9990   22.7020 C   0  0  2  0  0  0  0  0  0  0  0  0
    8.4700    5.7980   22.2200 H   0  0  0  0  0  0  0  0  0  0  0  0
    8.4470    7.2990   23.1610 H   0  0  0  0  0  0  0  0  0  0  0  0
    9.4200    7.1920   21.6710 H   0  0  0  0  0  0  0  0  0  0  0  0
   11.0070    5.4020   21.6250 H   0  0  0  0  0  0  0  0  0  0  0  0
   13.2390    5.3890   23.1490 H   0  0  0  0  0  0  0  0  0  0  0  0
   12.0420    4.8000   24.3040 H   0  0  0  0  0  0  0  0  0  0  0  0
   13.3660    2.9520   23.0250 H   0  0  0  0  0  0  0  0  0  0  0  0
   12.5790    3.5110   21.5800 H   0  0  0  0  0  0  0  0  0  0  0  0
   10.5770    2.8060   22.1140 H   0  0  0  0  0  0  0  0  0  0  0  0
    9.5180    3.0790   23.8900 H   0  0  0  0  0  0  0  0  0  0  0  0
   10.9750    3.0360   24.7960 H   0  0  0  0  0  0  0  0  0  0  0  0
    9.9110    1.2050   25.4470 H   0  0  0  0  0  0  0  0  0  0  0  0
   12.4970   -0.7980   24.8010 H   0  0  0  0  0  0  0  0  0  0  0  0
   12.6960    0.8950   24.7510 H   0  0  0  0  0  0  0  0  0  0  0  0
   13.8020    0.5420   22.6660 H   0  0  0  0  0  0  0  0  0  0  0  0
   12.7720   -1.3740   21.2110 H   0  0  0  0  0  0  0  0  0  0  0  0
   10.6250   -1.9900   21.6390 H   0  0  0  0  0  0  0  0  0  0  0  0
   11.3210   -2.6220   23.0950 H   0  0  0  0  0  0  0  0  0  0  0  0
   10.3180   -1.5310   24.3050 H   0  0  0  0  0  0  0  0  0  0  0  0
    8.5200   -1.5740   22.8800 H   0  0  0  0  0  0  0  0  0  0  0  0
    8.5470   -0.0760   23.7810 H   0  0  0  0  0  0  0  0  0  0  0  0
    7.3340   -1.3750   21.5380 H   0  0  0  0  0  0  0  0  0  0  0  0
    5.3020    1.2920   21.4300 H   0  0  0  0  0  0  0  0  0  0  0  0
    4.0920    2.1540   19.5000 H   0  0  0  0  0  0  0  0  0  0  0  0
    4.8340    1.5330   17.1920 H   0  0  0  0  0  0  0  0  0  0  0  0
    7.9270   -0.7920   18.5660 H   0  0  0  0  0  0  0  0  0  0  0  0
   10.9530    0.6640   21.8670 H   0  0  0  0  0  0  0  0  0  0  0  0
  1  2  1  0
  2  3  2  0
  2  4  1  0
  4  5  1  0
  5  6  1  0
  6  7  1  0
  7  8  1  0
  8  9  1  0
 10  9  1  1
 10 11  1  0
 11 12  1  0
 12 13  1  0
 13 14  1  0
 13 15  1  0
 10 16  1  0
 15 16  1  0
 16 17  1  0
 17 18  1  0
 18 19  2  0
 18 20  1  0
 20 21  1  0
 21 22  2  0
 22 23  1  0
 23 24  2  0
 24 25  1  0
 21 26  1  0
 25 26  2  0
  7 27  1  0
 10 27  1  0
 12 27  1  0
  1 28  1  0
  1 29  1  0
  1 30  1  0
  4 31  1  0
  5 32  1  0
  5 33  1  0
  6 34  1  0
  6 35  1  0
  7 36  1  6
  8 37  1  0
  8 38  1  0
  9 39  1  0
 11 40  1  0
 11 41  1  0
 12 42  1  1
 13 43  1  6
 15 44  1  0
 15 45  1  0
 16 46  1  1
 17 47  1  0
 17 48  1  0
 20 49  1  0
 22 50  1  0
 23 51  1  0
 24 52  1  0
 26 53  1  0
 27 54  1  6
M  END
