
     RDKit          3D

 64 67  0  0  0  0  0  0  0  0999 V2000
    9.1310    6.6400   22.6110 C   0  0  0  0  0  0  0  0  0  0  0  0
   10.3920    6.1960   23.3090 C   0  0  0  0  0  0  0  0  0  0  0  0
   10.5470    6.3210   24.5230 O   0  0  0  0  0  0  0  0  0  0  0  0
   11.3190    5.6530   22.4560 N   0  0  0  0  0  0  0  0  0  0  0  0
   12.5070    4.9560   22.9390 C   0  0  0  0  0  0  0  0  0  0  0  0
   12.6160    3.5170   22.4030 C   0  0  0  0  0  0  0  0  0  0  0  0
   11.8360    2.5540   23.2380 C   0  0  1  0  0  0  0  0  0  0  0  0
   10.6280    2.9720   23.7860 C   0  0  0  0  0  0  0  0  0  0  0  0
   10.1520    1.9290   24.5060 N   0  0  0  0  0  0  0  0  0  0  0  0
   10.6920    0.8960   23.8470 C   0  0  2  0  0  0  0  0  0  0  0  0
   11.4930    1.1210   22.8060 C   0  0  2  0  0  0  0  0  0  0  0  0
   12.5940    0.1190   22.7070 C   0  0  0  0  0  0  0  0  0  0  0  0
   11.8500   -1.2140   22.4170 C   0  0  1  0  0  0  0  0  0  0  0  0
   12.6180   -2.1950   22.9580 F   0  0  0  0  0  0  0  0  0  0  0  0
   10.4380   -1.3890   22.7180 C   0  0  1  0  0  0  0  0  0  0  0  0
   10.0360   -2.4110   23.5930 C   0  0  0  0  0  0  0  0  0  0  0  0
    8.6970   -2.3430   24.0150 C   0  0  1  0  0  0  0  0  0  0  0  0
    8.0240   -3.5110   24.5480 N   0  0  0  0  0  0  0  0  0  0  0  0
    8.1700   -4.6620   23.7300 C   0  0  0  0  0  0  0  0  0  0  0  0
    7.1660   -5.1280   22.9100 C   0  0  0  0  0  0  0  0  0  0  0  0
    6.0650   -5.7190   23.7400 C   0  0  0  0  0  0  0  0  0  0  0  0
    6.4210   -5.6020   25.1090 O   0  0  0  0  0  0  0  0  0  0  0  0
    6.0120   -4.3550   25.6600 C   0  0  0  0  0  0  0  0  0  0  0  0
    6.7520   -3.2340   25.2540 C   0  0  0  0  0  0  0  0  0  0  0  0
    8.5080   -1.1790   24.9510 C   0  0  0  0  0  0  0  0  0  0  0  0
    8.4500   -0.0510   24.0270 C   0  0  0  0  0  0  0  0  0  0  0  0
    9.7140   -0.0320   23.1670 C   0  0  1  0  0  0  0  0  0  0  0  0
    9.2510    0.7390   21.9980 C   0  0  0  0  0  0  0  0  0  0  0  0
    8.8300    1.4070   21.1660 N   0  0  0  0  0  0  0  0  0  0  0  0
    8.5200    5.7890   22.2950 H   0  0  0  0  0  0  0  0  0  0  0  0
    9.4020    7.2080   21.7180 H   0  0  0  0  0  0  0  0  0  0  0  0
    8.5470    7.2710   23.2840 H   0  0  0  0  0  0  0  0  0  0  0  0
   11.0020    5.4590   21.5040 H   0  0  0  0  0  0  0  0  0  0  0  0
   13.3900    5.5410   22.6480 H   0  0  0  0  0  0  0  0  0  0  0  0
   12.4580    4.9660   24.0350 H   0  0  0  0  0  0  0  0  0  0  0  0
   13.6710    3.2300   22.4040 H   0  0  0  0  0  0  0  0  0  0  0  0
   12.2650    3.4900   21.3690 H   0  0  0  0  0  0  0  0  0  0  0  0
   12.4870    2.2820   24.0050 H   0  0  0  0  0  0  0  0  0  0  0  0
   10.6410    3.8820   24.3680 H   0  0  0  0  0  0  0  0  0  0  0  0
    9.9180    3.1530   22.9690 H   0  0  0  0  0  0  0  0  0  0  0  0
    9.1330    1.9450   24.6050 H   0  0  0  0  0  0  0  0  0  0  0  0
   11.2490    0.3150   24.5990 H   0  0  0  0  0  0  0  0  0  0  0  0
   10.8880    1.1140   21.9330 H   0  0  0  0  0  0  0  0  0  0  0  0
   13.4470    0.3390   22.0830 H   0  0  0  0  0  0  0  0  0  0  0  0
   13.0470   -0.0050   23.7000 H   0  0  0  0  0  0  0  0  0  0  0  0
   11.9770   -1.4030   21.3500 H   0  0  0  0  0  0  0  0  0  0  0  0
    9.9780   -1.6360   21.7580 H   0  0  0  0  0  0  0  0  0  0  0  0
   10.7830   -2.4580   24.3810 H   0  0  0  0  0  0  0  0  0  0  0  0
   10.1760   -3.3450   23.0520 H   0  0  0  0  0  0  0  0  0  0  0  0
    8.1040   -2.0780   23.1310 H   0  0  0  0  0  0  0  0  0  0  0  0
    8.4950   -5.5190   24.3120 H   0  0  0  0  0  0  0  0  0  0  0  0
    8.9390   -4.3880   23.0400 H   0  0  0  0  0  0  0  0  0  0  0  0
    7.5850   -5.9040   22.2560 H   0  0  0  0  0  0  0  0  0  0  0  0
    6.7860   -4.3230   22.2700 H   0  0  0  0  0  0  0  0  0  0  0  0
    5.0860   -5.2690   23.5380 H   0  0  0  0  0  0  0  0  0  0  0  0
    5.9830   -6.7840   23.5060 H   0  0  0  0  0  0  0  0  0  0  0  0
    6.1060   -4.4540   26.7470 H   0  0  0  0  0  0  0  0  0  0  0  0
    4.9420   -4.2070   25.4640 H   0  0  0  0  0  0  0  0  0  0  0  0
    6.1280   -2.5610   24.6540 H   0  0  0  0  0  0  0  0  0  0  0  0
    6.9680   -2.6950   26.1830 H   0  0  0  0  0  0  0  0  0  0  0  0
    9.3450   -1.0190   25.6350 H   0  0  0  0  0  0  0  0  0  0  0  0
    7.5810   -1.2490   25.5300 H   0  0  0  0  0  0  0  0  0  0  0  0
    8.3550    0.8630   24.6270 H   0  0  0  0  0  0  0  0  0  0  0  0
    7.5470   -0.1290   23.4080 H   0  0  0  0  0  0  0  0  0  0  0  0
  1  2  1  0
  2  3  2  0
  2  4  1  0
  4  5  1  0
  5  6  1  0
  6  7  1  0
  7  8  1  0
  8  9  1  0
  9 10  1  0
  7 11  1  0
 10 11  1  0
 11 12  1  0
 12 13  1  0
 13 14  1  0
 13 15  1  0
 15 16  1  0
 16 17  1  0
 17 18  1  0
 18 19  1  0
 19 20  1  0
 20 21  1  0
 21 22  1  0
 22 23  1  0
 18 24  1  0
 23 24  1  0
 17 25  1  0
 25 26  1  0
 10 27  1  0
 15 27  1  0
 26 27  1  0
 27 28  1  6
 28 29  3  0
  1 30  1  0
  1 31  1  0
  1 32  1  0
  4 33  1  0
  5 34  1  0
  5 35  1  0
  6 36  1  0
  6 37  1  0
  7 38  1  1
  8 39  1  0
  8 40  1  0
  9 41  1  0
 10 42  1  1
 11 43  1  6
 12 44  1  0
 12 45  1  0
 13 46  1  6
 15 47  1  6
 16 48  1  0
 16 49  1  0
 17 50  1  6
 19 51  1  0
 19 52  1  0
 20 53  1  0
 20 54  1  0
 21 55  1  0
 21 56  1  0
 23 57  1  0
 23 58  1  0
 24 59  1  0
 24 60  1  0
 25 61  1  0
 25 62  1  0
 26 63  1  0
 26 64  1  0
M  END
