LIG
     RDKit          3D

 29 30  0  0  0  0  0  0  0  0999 V2000
    9.1720    5.7060   22.7835 C   0  0  0  0  0  0  0  0  0  0  0  0
   10.4710    5.5640   23.6590 C   0  0  0  0  0  0  0  0  0  0  0  0
   10.2510    5.6935   24.9035 O   0  0  0  0  0  0  0  0  0  0  0  0
   11.4900    5.8035   23.0690 N   0  0  0  0  0  0  0  0  0  0  0  0
   12.0015    4.3730   23.5020 C   0  0  0  0  0  0  0  0  0  0  0  0
   12.8165    3.5935   22.9915 C   0  0  0  0  0  0  0  0  0  0  0  0
   12.6065    2.4275   23.0940 C   0  0  0  0  0  0  0  0  0  0  0  0
   10.8035    2.6110   24.1180 C   0  0  0  0  0  0  0  0  0  0  0  0
   10.3530    1.5710   24.3790 N   0  0  0  0  0  0  0  0  0  0  0  0
   11.1310    0.8990   23.7485 C   0  0  0  0  0  0  0  0  0  0  0  0
   10.8240   -0.8020   23.6100 C   0  0  0  0  0  0  0  0  0  0  0  0
   11.7080   -1.5810   22.8690 C   0  0  0  0  0  0  0  0  0  0  0  0
   13.0365   -0.8015   22.4645 C   0  0  0  0  0  0  0  0  0  0  0  0
   13.6800   -1.7440   21.5180 F   0  0  0  0  0  0  0  0  0  0  0  0
   13.0300    0.3840   22.3680 C   0  0  0  0  0  0  0  0  0  0  0  0
   12.2930    1.1610   23.1260 C   0  0  0  0  0  0  0  0  0  0  0  0
    8.8695    6.7455   22.8047 H   0  0  0  0  0  0  0  0  0  0  0  0
    9.3867    6.3965   21.9781 H   0  0  0  0  0  0  0  0  0  0  0  0
    8.3722    6.0690   23.4160 H   0  0  0  0  0  0  0  0  0  0  0  0
   11.9881    6.3405   22.6900 H   0  0  0  0  0  0  0  0  0  0  0  0
   10.8996    3.9021   23.7236 H   0  0  0  0  0  0  0  0  0  0  0  0
   12.2027    4.6223   24.6794 H   0  0  0  0  0  0  0  0  0  0  0  0
   13.9229    3.8540   23.3470 H   0  0  0  0  0  0  0  0  0  0  0  0
   13.0087    3.8865   21.8540 H   0  0  0  0  0  0  0  0  0  0  0  0
   10.6176    3.6471   24.2168 H   0  0  0  0  0  0  0  0  0  0  0  0
    9.5649    1.2866   24.9495 H   0  0  0  0  0  0  0  0  0  0  0  0
    9.9596   -1.0963   24.1234 H   0  0  0  0  0  0  0  0  0  0  0  0
   11.6263   -2.5326   22.5625 H   0  0  0  0  0  0  0  0  0  0  0  0
   13.6987    0.9102   21.5755 H   0  0  0  0  0  0  0  0  0  0  0  0
  1  2  1  0
  2  3  2  0
  2  4  1  0
  4  5  1  0
  5  6  1  0
  6  7  1  0
  7  8  4  0
  8  9  4  0
  9 10  4  0
 10 11  4  0
 11 12  4  0
 12 13  4  0
 13 14  1  0
 13 15  4  0
 15 16  4  0
 16  7  4  0
 16 10  4  0
  1 17  1  0
  1 18  1  0
  1 19  1  0
  4 20  1  0
  5 21  1  0
  5 22  1  0
  6 23  1  0
  6 24  1  0
  8 25  1  0
  9 26  1  0
 11 27  1  0
 12 28  1  0
 15 29  1  0
M  END
