LIG
     RDKit          3D

 45 47  0  0  0  0  0  0  0  0999 V2000
   10.0290   -0.6240   22.5460 C   0  0  0  0  0  0  0  0  0  0  0  0
    9.1310   -0.0090   21.4750 C   0  0  0  0  0  0  0  0  0  0  0  0
    9.4550    1.0030   20.9560 O   0  0  0  0  0  0  0  0  0  0  0  0
    7.8860   -0.6570   21.1000 N   0  0  0  0  0  0  0  0  0  0  0  0
    7.0320   -0.0760   20.0760 C   0  0  0  0  0  0  0  0  0  0  0  0
    7.0510   -0.1350   18.9470 C   0  0  0  0  0  0  0  0  0  0  0  0
    6.6050    0.3710   17.8600 N   0  0  0  0  0  0  0  0  0  0  0  0
    5.5610    1.1035   17.8755 C   0  0  0  0  0  0  0  0  0  0  0  0
    4.7220    1.6620   18.6570 C   0  0  0  0  0  0  0  0  0  0  0  0
    4.9510    1.1295   19.6565 C   0  0  0  0  0  0  0  0  0  0  0  0
    3.8370    1.6420   20.9890 C   0  0  0  0  0  0  0  0  0  0  0  0
    4.8625    1.1900   22.1505 C   0  0  0  0  0  0  0  0  0  0  0  0
    3.3230    2.4740   23.1750 N   0  0  0  0  0  0  0  0  0  0  0  0
    2.1860    1.8200   23.8150 C   0  0  0  0  0  0  0  0  0  0  0  0
    2.0580    0.6400   23.7610 O   0  0  0  0  0  0  0  0  0  0  0  0
    1.1280    2.6340   24.5580 C   0  0  0  0  0  0  0  0  0  0  0  0
   -0.1860    2.1670   24.5890 C   0  0  0  0  0  0  0  0  0  0  0  0
   -1.1770    2.8770   25.2530 C   0  0  0  0  0  0  0  0  0  0  0  0
   -0.8610    4.0710   25.8830 C   0  0  0  0  0  0  0  0  0  0  0  0
    0.4450    4.5400   25.8480 C   0  0  0  0  0  0  0  0  0  0  0  0
    1.4450    3.8310   25.1930 C   0  0  0  0  0  0  0  0  0  0  0  0
    2.7270    4.3200   25.1830 F   0  0  0  0  0  0  0  0  0  0  0  0
    5.8435    0.3995   20.3055 C   0  0  0  0  0  0  0  0  0  0  0  0
   10.4939    0.1473   23.1593 H   0  0  0  0  0  0  0  0  0  0  0  0
    9.6526   -0.3287   23.5254 H   0  0  0  0  0  0  0  0  0  0  0  0
    9.4225   -1.2750   23.1749 H   0  0  0  0  0  0  0  0  0  0  0  0
    7.7387   -1.5968   21.3594 H   0  0  0  0  0  0  0  0  0  0  0  0
    6.4786   -1.6181   20.2192 H   0  0  0  0  0  0  0  0  0  0  0  0
    6.7503   -1.3573   18.8029 H   0  0  0  0  0  0  0  0  0  0  0  0
    6.4668   -0.4388   17.1083 H   0  0  0  0  0  0  0  0  0  0  0  0
    4.8530    0.5780   16.9429 H   0  0  0  0  0  0  0  0  0  0  0  0
    5.8767    2.0050   17.0277 H   0  0  0  0  0  0  0  0  0  0  0  0
    4.8065    2.7922   18.6123 H   0  0  0  0  0  0  0  0  0  0  0  0
    3.6738    1.5024   18.2607 H   0  0  0  0  0  0  0  0  0  0  0  0
    4.0166    0.0372   19.5531 H   0  0  0  0  0  0  0  0  0  0  0  0
    3.0771    1.0100   20.9129 H   0  0  0  0  0  0  0  0  0  0  0  0
    3.7749    2.6226   20.9107 H   0  0  0  0  0  0  0  0  0  0  0  0
    5.4644    1.9257   22.3709 H   0  0  0  0  0  0  0  0  0  0  0  0
    4.4951    0.4688   22.6654 H   0  0  0  0  0  0  0  0  0  0  0  0
    3.6650    3.2812   23.0001 H   0  0  0  0  0  0  0  0  0  0  0  0
   -0.4453    1.2305   24.0877 H   0  0  0  0  0  0  0  0  0  0  0  0
   -2.1961    2.4966   25.2786 H   0  0  0  0  0  0  0  0  0  0  0  0
   -1.6320    4.6372   26.4020 H   0  0  0  0  0  0  0  0  0  0  0  0
    0.7009    5.4839   26.3423 H   0  0  0  0  0  0  0  0  0  0  0  0
    6.5332    1.5917   20.6347 H   0  0  0  0  0  0  0  0  0  0  0  0
  1  2  1  0
  2  3  2  0
  2  4  1  0
  4  5  1  0
  5  6  1  0
  6  7  1  0
  7  8  1  0
  8  9  1  0
  9 10  1  0
 10 11  1  0
 11 12  1  0
 12 13  1  0
 13 14  1  0
 14 15  2  0
 14 16  1  0
 16 17  4  0
 17 18  4  0
 18 19  4  0
 19 20  4  0
 20 21  4  0
 21 22  1  0
 10 23  1  0
 23  5  1  0
 23  6  1  0
 21 16  4  0
  1 24  1  0
  1 25  1  0
  1 26  1  0
  4 27  1  0
  5 28  1  0
  6 29  1  0
  7 30  1  0
  8 31  1  0
  8 32  1  0
  9 33  1  0
  9 34  1  0
 10 35  1  0
 11 36  1  0
 11 37  1  0
 12 38  1  0
 12 39  1  0
 13 40  1  0
 17 41  1  0
 18 42  1  0
 19 43  1  0
 20 44  1  0
 23 45  1  0
M  END
