
     RDKit          3D

 56 58  0  0  0  0  0  0  0  0999 V2000
    9.0710    6.6730   22.5720 C   0  0  0  0  0  0  0  0  0  0  0  0
   10.3020    6.2250   23.3240 C   0  0  0  0  0  0  0  0  0  0  0  0
   10.4040    6.3360   24.5410 O   0  0  0  0  0  0  0  0  0  0  0  0
   11.2650    5.6980   22.5020 N   0  0  0  0  0  0  0  0  0  0  0  0
   12.4220    4.9930   23.0450 C   0  0  0  0  0  0  0  0  0  0  0  0
   12.5910    3.6040   22.4180 C   0  0  0  0  0  0  0  0  0  0  0  0
   11.6830    2.5700   23.0160 C   0  0  1  0  0  0  0  0  0  0  0  0
   10.3300    2.7130   22.8470 C   0  0  0  0  0  0  0  0  0  0  0  0
    9.4930    1.5130   23.3140 C   0  0  2  0  0  0  0  0  0  0  0  0
    8.6920    0.9270   23.9110 N   0  0  0  0  0  0  0  0  0  0  0  0
    7.6130    1.6970   24.2030 C   0  0  0  0  0  0  0  0  0  0  0  0
    7.7540    2.8250   24.6400 O   0  0  0  0  0  0  0  0  0  0  0  0
    6.4030    1.1990   23.9320 N   0  0  0  0  0  0  0  0  0  0  0  0
    5.8390    1.9310   22.9300 C   0  0  0  0  0  0  0  0  0  0  0  0
    4.4610    1.4370   22.5480 C   0  0  0  0  0  0  0  0  0  0  0  0
    3.6640    1.2180   23.7130 O   0  0  0  0  0  0  0  0  0  0  0  0
    4.3570    0.4250   24.6790 C   0  0  0  0  0  0  0  0  0  0  0  0
    5.6020    0.9440   25.0340 C   0  0  0  0  0  0  0  0  0  0  0  0
   10.5890    0.4410   23.2830 C   0  0  1  0  0  0  0  0  0  0  0  0
   10.3250   -0.6400   22.4790 C   0  0  0  0  0  0  0  0  0  0  0  0
   11.3280   -1.5950   22.2520 C   0  0  0  0  0  0  0  0  0  0  0  0
   12.7620   -1.0790   22.4130 C   0  0  1  0  0  0  0  0  0  0  0  0
   13.4710   -1.1460   21.2940 C   0  0  0  0  0  0  0  0  0  0  0  0
   14.0040   -1.2360   20.3150 N   0  0  0  0  0  0  0  0  0  0  0  0
   12.9380    0.2630   23.1840 C   0  0  0  0  0  0  0  0  0  0  0  0
   11.9020    1.1380   22.8890 C   0  0  2  0  0  0  0  0  0  0  0  0
    8.4410    7.3250   23.1780 H   0  0  0  0  0  0  0  0  0  0  0  0
    8.4870    5.7950   22.2850 H   0  0  0  0  0  0  0  0  0  0  0  0
    9.3810    7.2120   21.6770 H   0  0  0  0  0  0  0  0  0  0  0  0
   10.9830    5.4890   21.5460 H   0  0  0  0  0  0  0  0  0  0  0  0
   12.3130    4.9260   24.1300 H   0  0  0  0  0  0  0  0  0  0  0  0
   13.3010    5.6150   22.8380 H   0  0  0  0  0  0  0  0  0  0  0  0
   12.3960    3.6910   21.3440 H   0  0  0  0  0  0  0  0  0  0  0  0
   13.6310    3.2770   22.5180 H   0  0  0  0  0  0  0  0  0  0  0  0
   11.7980    2.8260   24.0260 H   0  0  0  0  0  0  0  0  0  0  0  0
    9.9750    3.6660   23.2330 H   0  0  0  0  0  0  0  0  0  0  0  0
   10.1470    2.8050   21.7720 H   0  0  0  0  0  0  0  0  0  0  0  0
    8.9650    1.4060   22.3630 H   0  0  0  0  0  0  0  0  0  0  0  0
    8.9260    0.2620   24.6360 H   0  0  0  0  0  0  0  0  0  0  0  0
    5.6770    2.9250   23.3600 H   0  0  0  0  0  0  0  0  0  0  0  0
    6.5670    2.0400   22.1270 H   0  0  0  0  0  0  0  0  0  0  0  0
    3.8570    2.0270   21.8660 H   0  0  0  0  0  0  0  0  0  0  0  0
    4.6150    0.4660   22.0660 H   0  0  0  0  0  0  0  0  0  0  0  0
    3.7150    0.3380   25.5580 H   0  0  0  0  0  0  0  0  0  0  0  0
    4.4680   -0.5800   24.2530 H   0  0  0  0  0  0  0  0  0  0  0  0
    6.1020    0.1970   25.6650 H   0  0  0  0  0  0  0  0  0  0  0  0
    5.5920    1.8690   25.5980 H   0  0  0  0  0  0  0  0  0  0  0  0
   10.6830   -0.0070   24.2680 H   0  0  0  0  0  0  0  0  0  0  0  0
   10.0430   -0.2870   21.4820 H   0  0  0  0  0  0  0  0  0  0  0  0
    9.4430   -1.1680   22.8670 H   0  0  0  0  0  0  0  0  0  0  0  0
   11.1520   -2.4830   22.8530 H   0  0  0  0  0  0  0  0  0  0  0  0
   11.2140   -1.9480   21.2240 H   0  0  0  0  0  0  0  0  0  0  0  0
   13.3340   -1.7710   22.9630 H   0  0  0  0  0  0  0  0  0  0  0  0
   13.0010    0.0830   24.2590 H   0  0  0  0  0  0  0  0  0  0  0  0
   13.8890    0.7080   22.8910 H   0  0  0  0  0  0  0  0  0  0  0  0
   11.9530    1.0240   21.8760 H   0  0  0  0  0  0  0  0  0  0  0  0
  1  2  1  0
  2  3  2  0
  2  4  1  0
  4  5  1  0
  5  6  1  0
  6  7  1  0
  7  8  1  0
  8  9  1  0
  9 10  1  0
 10 11  1  0
 11 12  2  0
 11 13  1  0
 13 14  1  0
 14 15  1  0
 15 16  1  0
 16 17  1  0
 13 18  1  0
 17 18  1  0
  9 19  1  0
 19 20  1  0
 20 21  1  0
 21 22  1  0
 22 23  1  0
 23 24  3  0
 22 25  1  0
  7 26  1  0
 19 26  1  0
 25 26  1  0
  1 27  1  0
  1 28  1  0
  1 29  1  0
  4 30  1  0
  5 31  1  0
  5 32  1  0
  6 33  1  0
  6 34  1  0
  7 35  1  1
  8 36  1  0
  8 37  1  0
  9 38  1  6
 10 39  1  0
 14 40  1  0
 14 41  1  0
 15 42  1  0
 15 43  1  0
 17 44  1  0
 17 45  1  0
 18 46  1  0
 18 47  1  0
 19 48  1  1
 20 49  1  0
 20 50  1  0
 21 51  1  0
 21 52  1  0
 22 53  1  1
 25 54  1  0
 25 55  1  0
 26 56  1  6
M  END
