
     RDKit          3D

 23 23  0  0  0  0  0  0  0  0999 V2000
    9.8010   -0.6020   22.4390 C   0  0  0  0  0  0  0  0  0  0  0  0
    8.8370    0.1540   21.5580 C   0  0  0  0  0  0  0  0  0  0  0  0
    9.0400    1.3360   21.2310 O   0  0  0  0  0  0  0  0  0  0  0  0
    7.7270   -0.5840   21.1750 N   0  0  0  0  0  0  0  0  0  0  0  0
    6.7700   -0.0740   20.2060 C   0  0  0  0  0  0  0  0  0  0  0  0
    7.1180   -0.3030   18.7850 C   0  0  0  0  0  0  0  0  0  0  0  0
    6.1850    0.2190   17.8350 N   0  0  0  0  0  0  0  0  0  0  0  0
    4.9690    0.9170   18.2490 C   0  0  0  0  0  0  0  0  0  0  0  0
    4.5250    1.1780   19.5550 C   0  0  0  0  0  0  0  0  0  0  0  0
    3.8280    1.5780   20.3910 N   0  0  0  0  0  0  0  0  0  0  0  0
    5.5810    0.5990   20.5370 C   0  0  0  0  0  0  0  0  0  0  0  0
    5.2260    0.8200   21.8870 C   0  0  0  0  0  0  0  0  0  0  0  0
   10.6540    0.0170   22.7280 H   0  0  0  0  0  0  0  0  0  0  0  0
   10.1800   -1.4690   21.8860 H   0  0  0  0  0  0  0  0  0  0  0  0
    9.2790   -0.9350   23.3390 H   0  0  0  0  0  0  0  0  0  0  0  0
    7.5460   -1.4780   21.6110 H   0  0  0  0  0  0  0  0  0  0  0  0
    7.9970   -0.8150   18.4090 H   0  0  0  0  0  0  0  0  0  0  0  0
    4.4350    1.2170   17.3700 H   0  0  0  0  0  0  0  0  0  0  0  0
    3.1400    2.2590   20.0710 H   0  0  0  0  0  0  0  0  0  0  0  0
    3.3950    0.8580   20.9760 H   0  0  0  0  0  0  0  0  0  0  0  0
    5.0010   -0.1600   22.3070 H   0  0  0  0  0  0  0  0  0  0  0  0
    6.0510    1.2250   22.4720 H   0  0  0  0  0  0  0  0  0  0  0  0
    4.3600    1.4380   22.1110 H   0  0  0  0  0  0  0  0  0  0  0  0
  1  2  1  0
  2  3  2  0
  2  4  1  0
  4  5  1  0
  5  6  2  0
  6  7  1  0
  7  8  2  0
  8  9  1  0
  9 10  1  0
  5 11  1  0
  9 11  2  0
 11 12  1  0
  1 13  1  0
  1 14  1  0
  1 15  1  0
  4 16  1  0
  6 17  1  0
  8 18  1  0
 10 19  1  0
 10 20  1  0
 12 21  1  0
 12 22  1  0
 12 23  1  0
M  END
