LIG
     RDKit          3D

 56 58  0  0  0  0  0  0  0  0999 V2000
    8.9920    6.2370   22.6120 C   0  0  0  0  0  0  0  0  0  0  0  0
   10.2740    5.9430   23.3830 C   0  0  0  0  0  0  0  0  0  0  0  0
   10.3130    6.1380   24.5460 O   0  0  0  0  0  0  0  0  0  0  0  0
   11.4270    5.4110   22.6760 N   0  0  0  0  0  0  0  0  0  0  0  0
   12.6680    5.0840   23.3500 C   0  0  0  0  0  0  0  0  0  0  0  0
   13.0500    3.6550   22.9570 C   0  0  0  0  0  0  0  0  0  0  0  0
   12.0650    2.5700   23.4230 C   0  0  0  0  0  0  0  0  0  0  0  0
   10.9400    2.7480   24.2110 C   0  0  0  0  0  0  0  0  0  0  0  0
   10.0930    1.3125   24.8130 C   0  0  0  0  0  0  0  0  0  0  0  0
    8.4500    0.7150   24.9220 N   0  0  0  0  0  0  0  0  0  0  0  0
    7.7030    1.4680   24.0150 C   0  0  0  0  0  0  0  0  0  0  0  0
    8.1720    2.4660   23.4420 O   0  0  0  0  0  0  0  0  0  0  0  0
    6.3360    0.9640   23.8050 N   0  0  0  0  0  0  0  0  0  0  0  0
    5.6140    1.6470   22.6990 C   0  0  0  0  0  0  0  0  0  0  0  0
    4.2210    1.0320   22.4570 C   0  0  0  0  0  0  0  0  0  0  0  0
    3.4750    1.0690   23.6570 O   0  0  0  0  0  0  0  0  0  0  0  0
    4.0500    0.3480   24.7320 C   0  0  0  0  0  0  0  0  0  0  0  0
    5.4800    0.8530   25.0320 C   0  0  0  0  0  0  0  0  0  0  0  0
   10.9020    0.5130   23.9840 C   0  0  0  0  0  0  0  0  0  0  0  0
   10.6330   -0.8105   23.6495 C   0  0  0  0  0  0  0  0  0  0  0  0
   11.4950   -1.4895   22.8075 C   0  0  0  0  0  0  0  0  0  0  0  0
   12.6245   -0.8575   22.3020 C   0  0  0  0  0  0  0  0  0  0  0  0
   13.4800   -1.5225   21.4490 C   0  0  0  0  0  0  0  0  0  0  0  0
   13.9850   -1.7380   20.5810 N   0  0  0  0  0  0  0  0  0  0  0  0
   12.8995    0.4485   22.6415 C   0  0  0  0  0  0  0  0  0  0  0  0
   12.0240    1.1400   23.4865 C   0  0  0  0  0  0  0  0  0  0  0  0
    8.1202    6.0762   23.2576 H   0  0  0  0  0  0  0  0  0  0  0  0
    9.0036    5.5916   21.7175 H   0  0  0  0  0  0  0  0  0  0  0  0
    9.0641    7.3191   22.3913 H   0  0  0  0  0  0  0  0  0  0  0  0
   11.5394    5.6601   24.4968 H   0  0  0  0  0  0  0  0  0  0  0  0
   12.4925    5.1538   24.4397 H   0  0  0  0  0  0  0  0  0  0  0  0
   13.4657    5.7953   23.1105 H   0  0  0  0  0  0  0  0  0  0  0  0
   13.1891    3.5430   21.8743 H   0  0  0  0  0  0  0  0  0  0  0  0
   14.0370    3.4349   23.4210 H   0  0  0  0  0  0  0  0  0  0  0  0
   12.8967    2.4828   24.7225 H   0  0  0  0  0  0  0  0  0  0  0  0
   11.1772    3.2600   25.2322 H   0  0  0  0  0  0  0  0  0  0  0  0
   10.0802    3.3930   23.7610 H   0  0  0  0  0  0  0  0  0  0  0  0
    9.5035    1.4097   23.1358 H   0  0  0  0  0  0  0  0  0  0  0  0
    8.3517    0.0693   25.5047 H   0  0  0  0  0  0  0  0  0  0  0  0
    5.4620    2.7331   22.9159 H   0  0  0  0  0  0  0  0  0  0  0  0
    6.2067    1.4940   21.7583 H   0  0  0  0  0  0  0  0  0  0  0  0
    3.6817    1.5333   21.6654 H   0  0  0  0  0  0  0  0  0  0  0  0
    4.3886   -0.0296   22.2256 H   0  0  0  0  0  0  0  0  0  0  0  0
    3.4112    0.5098   25.6162 H   0  0  0  0  0  0  0  0  0  0  0  0
    4.0903   -0.7320   24.5011 H   0  0  0  0  0  0  0  0  0  0  0  0
    5.9218    0.1992   25.8109 H   0  0  0  0  0  0  0  0  0  0  0  0
    5.3929    1.8942   25.4877 H   0  0  0  0  0  0  0  0  0  0  0  0
   11.7430    0.0596   25.1580 H   0  0  0  0  0  0  0  0  0  0  0  0
    9.5624   -0.8272   23.1086 H   0  0  0  0  0  0  0  0  0  0  0  0
   10.3829   -1.4720   24.6255 H   0  0  0  0  0  0  0  0  0  0  0  0
   11.8721   -2.4256   23.4140 H   0  0  0  0  0  0  0  0  0  0  0  0
   10.9032   -2.0758   21.9769 H   0  0  0  0  0  0  0  0  0  0  0  0
   13.4609   -1.3084   23.4306 H   0  0  0  0  0  0  0  0  0  0  0  0
   13.9552    0.4479   23.1455 H   0  0  0  0  0  0  0  0  0  0  0  0
   13.1278    1.0618   21.6748 H   0  0  0  0  0  0  0  0  0  0  0  0
   11.1656    1.2980   22.0810 H   0  0  0  0  0  0  0  0  0  0  0  0
  1  2  1  0
  2  3  2  0
  2  4  1  0
  4  5  1  0
  5  6  1  0
  6  7  1  0
  7  8  1  0
  8  9  1  0
  9 10  1  0
 10 11  1  0
 11 12  2  0
 11 13  1  0
 13 14  1  0
 14 15  1  0
 15 16  1  0
 16 17  1  0
 17 18  1  0
  9 19  1  0
 19 20  1  0
 20 21  1  0
 21 22  1  0
 22 23  1  0
 23 24  3  0
 22 25  1  0
 25 26  1  0
 26  7  1  0
 18 13  1  0
 26 19  1  0
  1 27  1  0
  1 28  1  0
  1 29  1  0
  4 30  1  0
  5 31  1  0
  5 32  1  0
  6 33  1  0
  6 34  1  0
  7 35  1  0
  8 36  1  0
  8 37  1  0
  9 38  1  0
 10 39  1  0
 14 40  1  0
 14 41  1  0
 15 42  1  0
 15 43  1  0
 17 44  1  0
 17 45  1  0
 18 46  1  0
 18 47  1  0
 19 48  1  0
 20 49  1  0
 20 50  1  0
 21 51  1  0
 21 52  1  0
 22 53  1  0
 25 54  1  0
 25 55  1  0
 26 56  1  0
M  END
