LIG
     RDKit          3D

 37 38  0  0  0  0  0  0  0  0999 V2000
    5.3930    0.6630   21.8670 C   0  0  0  0  0  0  0  0  0  0  0  0
    5.7960    0.6640   20.3295 C   0  0  0  0  0  0  0  0  0  0  0  0
    5.1035    1.1510   19.2315 C   0  0  0  0  0  0  0  0  0  0  0  0
    5.6620    0.9970   17.9755 C   0  0  0  0  0  0  0  0  0  0  0  0
    6.8260    0.4110   17.8005 N   0  0  0  0  0  0  0  0  0  0  0  0
    7.5155   -0.0595   18.8135 C   0  0  0  0  0  0  0  0  0  0  0  0
    7.0160    0.0475   20.0925 C   0  0  0  0  0  0  0  0  0  0  0  0
    7.7490   -0.4565   21.2130 N   0  0  0  0  0  0  0  0  0  0  0  0
    8.9980    0.1515   21.5855 C   0  0  0  0  0  0  0  0  0  0  0  0
    9.4370    1.0525   20.9780 O   0  0  0  0  0  0  0  0  0  0  0  0
    9.7190   -0.3895   22.7895 C   0  0  0  0  0  0  0  0  0  0  0  0
   10.9230   -0.0800   23.0900 C   0  0  0  0  0  0  0  0  0  0  0  0
   11.5620   -1.0470   22.0960 C   0  0  0  0  0  0  0  0  0  0  0  0
   12.8180   -1.7130   22.6470 C   0  0  0  0  0  0  0  0  0  0  0  0
   13.6100   -0.8590   23.6290 C   0  0  0  0  0  0  0  0  0  0  0  0
   12.7710   -0.1530   24.6900 C   0  0  0  0  0  0  0  0  0  0  0  0
   11.2810   -0.4020   24.5270 C   0  0  0  0  0  0  0  0  0  0  0  0
    4.8976    1.5980   22.0865 H   0  0  0  0  0  0  0  0  0  0  0  0
    6.2824    0.5742   22.4738 H   0  0  0  0  0  0  0  0  0  0  0  0
    5.8675    1.5105   22.3407 H   0  0  0  0  0  0  0  0  0  0  0  0
    4.1436    1.6456   19.3277 H   0  0  0  0  0  0  0  0  0  0  0  0
    5.1577    1.3549   17.0909 H   0  0  0  0  0  0  0  0  0  0  0  0
    8.4464   -0.5088   18.5719 H   0  0  0  0  0  0  0  0  0  0  0  0
    7.4258   -1.1868   21.7221 H   0  0  0  0  0  0  0  0  0  0  0  0
    9.5344   -1.5504   22.7209 H   0  0  0  0  0  0  0  0  0  0  0  0
    8.9523   -0.1548   23.6476 H   0  0  0  0  0  0  0  0  0  0  0  0
   10.4884   -1.8438   23.4691 H   0  0  0  0  0  0  0  0  0  0  0  0
   10.8289   -1.8166   21.8333 H   0  0  0  0  0  0  0  0  0  0  0  0
   11.8233   -0.5392   21.1620 H   0  0  0  0  0  0  0  0  0  0  0  0
   12.5471   -2.6766   23.1209 H   0  0  0  0  0  0  0  0  0  0  0  0
   13.4824   -1.9878   21.8031 H   0  0  0  0  0  0  0  0  0  0  0  0
   14.2096   -0.1061   23.0745 H   0  0  0  0  0  0  0  0  0  0  0  0
   14.3659   -1.5019   24.1303 H   0  0  0  0  0  0  0  0  0  0  0  0
   12.9577    0.9255   24.6529 H   0  0  0  0  0  0  0  0  0  0  0  0
   13.1024   -0.4897   25.6781 H   0  0  0  0  0  0  0  0  0  0  0  0
   11.0580   -1.4268   24.7842 H   0  0  0  0  0  0  0  0  0  0  0  0
   10.7314    0.2461   25.1987 H   0  0  0  0  0  0  0  0  0  0  0  0
  1  2  1  0
  2  3  4  0
  3  4  4  0
  4  5  4  0
  5  6  4  0
  6  7  4  0
  7  8  1  0
  8  9  1  0
  9 10  2  0
  9 11  1  0
 11 12  1  0
 12 13  1  0
 13 14  1  0
 14 15  1  0
 15 16  1  0
 16 17  1  0
  7  2  4  0
 17 12  1  0
  1 18  1  0
  1 19  1  0
  1 20  1  0
  3 21  1  0
  4 22  1  0
  6 23  1  0
  8 24  1  0
 11 25  1  0
 11 26  1  0
 12 27  1  0
 13 28  1  0
 13 29  1  0
 14 30  1  0
 14 31  1  0
 15 32  1  0
 15 33  1  0
 16 34  1  0
 16 35  1  0
 17 36  1  0
 17 37  1  0
M  END
