
     RDKit          3D

 45 47  0  0  0  0  0  0  0  0999 V2000
    8.9810    6.6980   22.4930 C   0  0  0  0  0  0  0  0  0  0  0  0
   10.1070    6.2470   23.3810 C   0  0  0  0  0  0  0  0  0  0  0  0
   10.0890    6.3820   24.6000 O   0  0  0  0  0  0  0  0  0  0  0  0
   11.1430    5.6730   22.6970 N   0  0  0  0  0  0  0  0  0  0  0  0
   12.2070    5.0300   23.4490 C   0  0  0  0  0  0  0  0  0  0  0  0
   12.6850    3.7180   22.8330 C   0  0  0  0  0  0  0  0  0  0  0  0
   11.6670    2.6220   22.7620 C   0  0  0  0  0  0  0  0  0  0  0  0
   10.3400    2.8450   22.7190 C   0  0  0  0  0  0  0  0  0  0  0  0
    9.7090    1.6520   22.5870 N   0  0  0  0  0  0  0  0  0  0  0  0
   10.5560    0.5500   22.5410 C   0  0  0  0  0  0  0  0  0  0  0  0
   10.0280   -0.8520   22.3600 C   0  0  0  0  0  0  0  0  0  0  0  0
    8.7330   -0.0690   22.2770 C   0  0  0  0  0  0  0  0  0  0  0  0
    8.6140    0.9920   22.8410 O   0  0  0  0  0  0  0  0  0  0  0  0
    7.7510   -0.6920   21.4850 N   0  0  0  0  0  0  0  0  0  0  0  0
    6.9200   -0.1180   20.3690 C   0  0  0  0  0  0  0  0  0  0  0  0
    7.1470   -0.2970   19.0140 C   0  0  0  0  0  0  0  0  0  0  0  0
    6.4290    0.2030   17.9740 N   0  0  0  0  0  0  0  0  0  0  0  0
    5.3720    0.9530   18.3040 C   0  0  0  0  0  0  0  0  0  0  0  0
    5.0320    1.2020   19.6230 C   0  0  0  0  0  0  0  0  0  0  0  0
    5.7940    0.6750   20.6720 C   0  0  0  0  0  0  0  0  0  0  0  0
    5.4060    0.9550   21.9910 C   0  0  0  0  0  0  0  0  0  0  0  0
   11.4850   -1.4520   22.4690 C   0  0  0  0  0  0  0  0  0  0  0  0
   12.7230   -0.9150   22.6160 C   0  0  0  0  0  0  0  0  0  0  0  0
   13.7210   -1.7800   22.6370 F   0  0  0  0  0  0  0  0  0  0  0  0
   12.9620    0.4010   22.7260 C   0  0  0  0  0  0  0  0  0  0  0  0
   11.8470    1.1770   22.6940 C   0  0  0  0  0  0  0  0  0  0  0  0
    8.3770    5.8570   22.1450 H   0  0  0  0  0  0  0  0  0  0  0  0
    9.4000    7.1950   21.6210 H   0  0  0  0  0  0  0  0  0  0  0  0
    8.3440    7.3960   23.0420 H   0  0  0  0  0  0  0  0  0  0  0  0
   10.9710    5.4130   21.7230 H   0  0  0  0  0  0  0  0  0  0  0  0
   13.0430    5.7350   23.5290 H   0  0  0  0  0  0  0  0  0  0  0  0
   11.8210    4.8660   24.4570 H   0  0  0  0  0  0  0  0  0  0  0  0
   13.5620    3.3810   23.3250 H   0  0  0  0  0  0  0  0  0  0  0  0
   13.0150    3.9310   21.8120 H   0  0  0  0  0  0  0  0  0  0  0  0
    9.7700    3.7640   22.7530 H   0  0  0  0  0  0  0  0  0  0  0  0
    8.7040    1.5770   22.5190 H   0  0  0  0  0  0  0  0  0  0  0  0
    7.4790   -1.6190   21.7750 H   0  0  0  0  0  0  0  0  0  0  0  0
    8.0140   -0.9210   18.7720 H   0  0  0  0  0  0  0  0  0  0  0  0
    4.7930    1.3570   17.4770 H   0  0  0  0  0  0  0  0  0  0  0  0
    4.1600    1.8190   19.8270 H   0  0  0  0  0  0  0  0  0  0  0  0
    4.4610    1.5100   21.9990 H   0  0  0  0  0  0  0  0  0  0  0  0
    5.2870    0.0270   22.5610 H   0  0  0  0  0  0  0  0  0  0  0  0
    6.1510    1.5670   22.5120 H   0  0  0  0  0  0  0  0  0  0  0  0
   11.5400   -2.5350   22.4040 H   0  0  0  0  0  0  0  0  0  0  0  0
   13.9640    0.7960   22.8300 H   0  0  0  0  0  0  0  0  0  0  0  0
  1  2  1  0
  2  3  2  0
  2  4  1  0
  4  5  1  0
  5  6  1  0
  6  7  1  0
  7  8  2  0
  8  9  1  0
  9 10  1  0
 10 11  1  0
 11 12  1  0
 12 13  2  0
 12 14  1  0
 14 15  1  0
 15 16  2  0
 16 17  1  0
 17 18  2  0
 18 19  1  0
 15 20  1  0
 19 20  2  0
 20 21  1  0
 11 22  2  0
 22 23  1  0
 23 24  1  0
 23 25  2  0
  7 26  1  0
 10 26  2  0
 25 26  1  0
  1 27  1  0
  1 28  1  0
  1 29  1  0
  4 30  1  0
  5 31  1  0
  5 32  1  0
  6 33  1  0
  6 34  1  0
  8 35  1  0
  9 36  1  0
 14 37  1  0
 16 38  1  0
 18 39  1  0
 19 40  1  0
 21 41  1  0
 21 42  1  0
 21 43  1  0
 22 44  1  0
 25 45  1  0
M  END
