
     RDKit          3D

 30 31  0  0  0  0  0  0  0  0999 V2000
    5.1520    0.8120   21.9770 C   0  0  0  0  0  0  0  0  0  0  0  0
    5.5370    0.6970   20.5330 C   0  0  0  0  0  0  0  0  0  0  0  0
    4.8870    1.4920   19.5830 C   0  0  0  0  0  0  0  0  0  0  0  0
    5.3200    1.3360   18.1340 C   0  0  0  0  0  0  0  0  0  0  0  0
    6.2850    0.4760   17.7780 N   0  0  0  0  0  0  0  0  0  0  0  0
    6.8680   -0.2640   18.7590 C   0  0  0  0  0  0  0  0  0  0  0  0
    6.5320   -0.1820   20.0820 C   0  0  0  0  0  0  0  0  0  0  0  0
    7.2430   -1.0230   20.8800 N   0  0  0  0  0  0  0  0  0  0  0  0
    8.3030   -0.4080   21.4800 C   0  0  0  0  0  0  0  0  0  0  0  0
    8.6820    0.7470   21.2770 O   0  0  0  0  0  0  0  0  0  0  0  0
    9.1200   -1.1720   22.4840 N   0  0  0  0  0  0  0  0  0  0  0  0
   10.4750   -0.5760   22.6160 C   0  0  0  0  0  0  0  0  0  0  0  0
   10.6940    0.8620   22.9140 C   0  0  0  0  0  0  0  0  0  0  0  0
   12.1140    1.3440   23.0120 C   0  0  0  0  0  0  0  0  0  0  0  0
   13.1430    0.4810   22.8360 C   0  0  0  0  0  0  0  0  0  0  0  0
   12.9200   -0.8650   22.5580 C   0  0  0  0  0  0  0  0  0  0  0  0
   11.6260   -1.3950   22.4460 C   0  0  0  0  0  0  0  0  0  0  0  0
    4.2330    1.3870   22.1030 H   0  0  0  0  0  0  0  0  0  0  0  0
    5.9500    1.3180   22.5230 H   0  0  0  0  0  0  0  0  0  0  0  0
    5.0050   -0.1910   22.3870 H   0  0  0  0  0  0  0  0  0  0  0  0
    4.1060    2.1970   19.8460 H   0  0  0  0  0  0  0  0  0  0  0  0
    4.8690    1.9150   17.3310 H   0  0  0  0  0  0  0  0  0  0  0  0
    7.6360   -0.9370   18.3900 H   0  0  0  0  0  0  0  0  0  0  0  0
    7.4190   -1.9390   20.4980 H   0  0  0  0  0  0  0  0  0  0  0  0
    8.6550   -1.3840   23.3520 H   0  0  0  0  0  0  0  0  0  0  0  0
    9.8490    1.5470   23.0530 H   0  0  0  0  0  0  0  0  0  0  0  0
   12.3000    2.4020   23.2280 H   0  0  0  0  0  0  0  0  0  0  0  0
   14.1760    0.7720   22.8930 H   0  0  0  0  0  0  0  0  0  0  0  0
   13.7750   -1.5230   22.4220 H   0  0  0  0  0  0  0  0  0  0  0  0
   11.5260   -2.4560   22.2220 H   0  0  0  0  0  0  0  0  0  0  0  0
  1  2  1  0
  2  3  2  0
  3  4  1  0
  4  5  2  0
  5  6  1  0
  2  7  1  0
  6  7  2  0
  7  8  1  0
  8  9  1  0
  9 10  2  0
  9 11  1  0
 11 12  1  0
 12 13  2  0
 13 14  1  0
 14 15  2  0
 15 16  1  0
 12 17  1  0
 16 17  2  0
  1 18  1  0
  1 19  1  0
  1 20  1  0
  3 21  1  0
  4 22  1  0
  6 23  1  0
  8 24  1  0
 11 25  1  0
 13 26  1  0
 14 27  1  0
 15 28  1  0
 16 29  1  0
 17 30  1  0
M  END
