
     RDKit          3D

 45 47  0  0  0  0  0  0  0  0999 V2000
    8.9720    6.7020   22.5010 C   0  0  0  0  0  0  0  0  0  0  0  0
   10.0990    6.2550   23.3890 C   0  0  0  0  0  0  0  0  0  0  0  0
   10.0830    6.3980   24.6100 O   0  0  0  0  0  0  0  0  0  0  0  0
   11.1330    5.6750   22.7090 N   0  0  0  0  0  0  0  0  0  0  0  0
   12.1930    5.0280   23.4590 C   0  0  0  0  0  0  0  0  0  0  0  0
   12.6750    3.7230   22.8360 C   0  0  0  0  0  0  0  0  0  0  0  0
   11.6640    2.6200   22.7590 C   0  0  0  0  0  0  0  0  0  0  0  0
   10.3380    2.8410   22.7100 C   0  0  0  0  0  0  0  0  0  0  0  0
    9.7110    1.6480   22.5760 N   0  0  0  0  0  0  0  0  0  0  0  0
   10.5570    0.5470   22.5330 C   0  0  0  0  0  0  0  0  0  0  0  0
   10.0330   -0.8550   22.3520 C   0  0  0  0  0  0  0  0  0  0  0  0
    8.7380   -0.0680   22.2610 C   0  0  0  0  0  0  0  0  0  0  0  0
    8.6240    0.9970   22.8140 O   0  0  0  0  0  0  0  0  0  0  0  0
    7.7500   -0.6960   21.4780 N   0  0  0  0  0  0  0  0  0  0  0  0
    6.9160   -0.1190   20.3660 C   0  0  0  0  0  0  0  0  0  0  0  0
    7.1420   -0.2930   19.0100 C   0  0  0  0  0  0  0  0  0  0  0  0
    6.4230    0.2090   17.9730 N   0  0  0  0  0  0  0  0  0  0  0  0
    5.3660    0.9550   18.3050 C   0  0  0  0  0  0  0  0  0  0  0  0
    5.0260    1.2010   19.6270 C   0  0  0  0  0  0  0  0  0  0  0  0
    5.7900    0.6710   20.6720 C   0  0  0  0  0  0  0  0  0  0  0  0
    5.4020    0.9480   21.9940 C   0  0  0  0  0  0  0  0  0  0  0  0
   11.4880   -1.4540   22.4680 C   0  0  0  0  0  0  0  0  0  0  0  0
   12.7260   -0.9130   22.6190 C   0  0  0  0  0  0  0  0  0  0  0  0
   13.7230   -1.7750   22.6440 F   0  0  0  0  0  0  0  0  0  0  0  0
   12.9640    0.4030   22.7280 C   0  0  0  0  0  0  0  0  0  0  0  0
   11.8480    1.1780   22.6920 C   0  0  0  0  0  0  0  0  0  0  0  0
    8.3590    5.8570   22.1680 H   0  0  0  0  0  0  0  0  0  0  0  0
    8.3290    7.3960   23.0510 H   0  0  0  0  0  0  0  0  0  0  0  0
    9.3900    7.2000   21.6270 H   0  0  0  0  0  0  0  0  0  0  0  0
   10.9600    5.4160   21.7330 H   0  0  0  0  0  0  0  0  0  0  0  0
   13.0260    5.7340   23.5500 H   0  0  0  0  0  0  0  0  0  0  0  0
   11.8010    4.8540   24.4640 H   0  0  0  0  0  0  0  0  0  0  0  0
   13.5540    3.3880   23.3240 H   0  0  0  0  0  0  0  0  0  0  0  0
   13.0030    3.9430   21.8140 H   0  0  0  0  0  0  0  0  0  0  0  0
    9.7680    3.7610   22.7420 H   0  0  0  0  0  0  0  0  0  0  0  0
    8.7050    1.5750   22.5040 H   0  0  0  0  0  0  0  0  0  0  0  0
    7.4670   -1.6160   21.7800 H   0  0  0  0  0  0  0  0  0  0  0  0
    8.0100   -0.9160   18.7700 H   0  0  0  0  0  0  0  0  0  0  0  0
    4.7880    1.3590   17.4800 H   0  0  0  0  0  0  0  0  0  0  0  0
    4.1540    1.8160   19.8290 H   0  0  0  0  0  0  0  0  0  0  0  0
    4.4840    1.5440   22.0030 H   0  0  0  0  0  0  0  0  0  0  0  0
    5.2390    0.0160   22.5470 H   0  0  0  0  0  0  0  0  0  0  0  0
    6.1690    1.5170   22.5280 H   0  0  0  0  0  0  0  0  0  0  0  0
   11.5460   -2.5370   22.4040 H   0  0  0  0  0  0  0  0  0  0  0  0
   13.9640    0.8000   22.8350 H   0  0  0  0  0  0  0  0  0  0  0  0
  1  2  1  0
  2  3  2  0
  2  4  1  0
  4  5  1  0
  5  6  1  0
  6  7  1  0
  7  8  2  0
  8  9  1  0
  9 10  1  0
 10 11  1  0
 11 12  1  0
 12 13  2  0
 12 14  1  0
 14 15  1  0
 15 16  2  0
 16 17  1  0
 17 18  2  0
 18 19  1  0
 15 20  1  0
 19 20  2  0
 20 21  1  0
 11 22  2  0
 22 23  1  0
 23 24  1  0
 23 25  2  0
  7 26  1  0
 10 26  2  0
 25 26  1  0
  1 27  1  0
  1 28  1  0
  1 29  1  0
  4 30  1  0
  5 31  1  0
  5 32  1  0
  6 33  1  0
  6 34  1  0
  8 35  1  0
  9 36  1  0
 14 37  1  0
 16 38  1  0
 18 39  1  0
 19 40  1  0
 21 41  1  0
 21 42  1  0
 21 43  1  0
 22 44  1  0
 25 45  1  0
M  END
