LIG
     RDKit          3D

 48 49  0  0  0  0  0  0  0  0999 V2000
    5.3930    0.6630   21.8670 C   0  0  0  0  0  0  0  0  0  0  0  0
    5.8360    0.5550   20.4100 C   0  0  0  0  0  0  0  0  0  0  0  0
    5.0650    1.0940   19.3800 C   0  0  0  0  0  0  0  0  0  0  0  0
    5.5190    0.9700   18.0740 C   0  0  0  0  0  0  0  0  0  0  0  0
    6.6520    0.3680   17.7870 N   0  0  0  0  0  0  0  0  0  0  0  0
    7.4050   -0.1450   18.7400 C   0  0  0  0  0  0  0  0  0  0  0  0
    7.0320   -0.0760   20.0760 C   0  0  0  0  0  0  0  0  0  0  0  0
    7.8860   -0.6570   21.1000 N   0  0  0  0  0  0  0  0  0  0  0  0
    9.1310   -0.0090   21.4750 C   0  0  0  0  0  0  0  0  0  0  0  0
    9.4550    1.0030   20.9560 O   0  0  0  0  0  0  0  0  0  0  0  0
   10.3165   -0.8830   22.9695 C   0  0  0  0  0  0  0  0  0  0  0  0
    9.2100   -1.7480   23.3470 C   0  0  0  0  0  0  0  0  0  0  0  0
    9.3140   -3.0270   24.1660 C   0  0  0  0  0  0  0  0  0  0  0  0
    8.0610   -3.5350   24.6620 N   0  0  0  0  0  0  0  0  0  0  0  0
    8.0950   -4.3580   26.1540 S   0  0  0  0  0  6  0  0  0  0  0  0
    6.4340   -4.9520   26.5780 C   0  0  0  0  0  0  0  0  0  0  0  0
    9.0830   -5.4410   26.1700 O   0  0  0  0  0  0  0  0  0  0  0  0
    8.6390   -3.5100   27.2010 O   0  0  0  0  0  0  0  0  0  0  0  0
   10.9090   -0.0960   24.2540 C   0  0  0  0  0  0  0  0  0  0  0  0
   12.1980    0.4100   24.2780 C   0  0  0  0  0  0  0  0  0  0  0  0
   13.1790   -0.1430   23.4700 C   0  0  0  0  0  0  0  0  0  0  0  0
   12.8710   -1.1970   22.6200 C   0  0  0  0  0  0  0  0  0  0  0  0
   11.5830   -1.6930   22.5900 C   0  0  0  0  0  0  0  0  0  0  0  0
    5.9591   -0.0375   22.4798 H   0  0  0  0  0  0  0  0  0  0  0  0
    4.3332    0.4252   21.9735 H   0  0  0  0  0  0  0  0  0  0  0  0
    5.5422    1.6829   22.2246 H   0  0  0  0  0  0  0  0  0  0  0  0
    4.1296    1.6034   19.5708 H   0  0  0  0  0  0  0  0  0  0  0  0
    4.9523    1.3686   17.2476 H   0  0  0  0  0  0  0  0  0  0  0  0
    8.3078   -0.6075   18.4048 H   0  0  0  0  0  0  0  0  0  0  0  0
    7.6600   -1.4933   21.4761 H   0  0  0  0  0  0  0  0  0  0  0  0
    8.5845   -2.0163   22.3988 H   0  0  0  0  0  0  0  0  0  0  0  0
    8.3781   -1.1140   23.8686 H   0  0  0  0  0  0  0  0  0  0  0  0
    9.9826   -2.8564   25.0484 H   0  0  0  0  0  0  0  0  0  0  0  0
    9.8401   -3.8370   23.5969 H   0  0  0  0  0  0  0  0  0  0  0  0
    7.3353   -3.8433   24.0482 H   0  0  0  0  0  0  0  0  0  0  0  0
    6.2487   -5.8638   26.0178 H   0  0  0  0  0  0  0  0  0  0  0  0
    5.7196   -4.1718   26.3337 H   0  0  0  0  0  0  0  0  0  0  0  0
    6.4310   -5.1516   27.6467 H   0  0  0  0  0  0  0  0  0  0  0  0
   10.1594    0.7382   24.4725 H   0  0  0  0  0  0  0  0  0  0  0  0
   10.6982   -0.7694   25.1559 H   0  0  0  0  0  0  0  0  0  0  0  0
   12.1610    1.5513   24.0758 H   0  0  0  0  0  0  0  0  0  0  0  0
   12.5770    0.4475   25.3743 H   0  0  0  0  0  0  0  0  0  0  0  0
   14.0896   -0.4358   24.1319 H   0  0  0  0  0  0  0  0  0  0  0  0
   13.6984    0.6998   22.8580 H   0  0  0  0  0  0  0  0  0  0  0  0
   13.6229   -2.0535   22.8104 H   0  0  0  0  0  0  0  0  0  0  0  0
   13.1879   -0.9252   21.5436 H   0  0  0  0  0  0  0  0  0  0  0  0
   11.3479   -2.1295   21.5316 H   0  0  0  0  0  0  0  0  0  0  0  0
   11.5330   -2.7090   23.1690 H   0  0  0  0  0  0  0  0  0  0  0  0
  1  2  1  0
  2  3  4  0
  3  4  4  0
  4  5  4  0
  5  6  4  0
  6  7  4  0
  7  8  1  0
  8  9  1  0
  9 10  2  0
  9 11  1  0
 11 12  1  0
 12 13  1  0
 13 14  1  0
 14 15  1  0
 15 16  1  0
 15 17  2  0
 15 18  2  0
 11 19  1  0
 19 20  1  0
 20 21  1  0
 21 22  1  0
 22 23  1  0
  7  2  4  0
 23 11  1  0
  1 24  1  0
  1 25  1  0
  1 26  1  0
  3 27  1  0
  4 28  1  0
  6 29  1  0
  8 30  1  0
 12 31  1  0
 12 32  1  0
 13 33  1  0
 13 34  1  0
 14 35  1  0
 16 36  1  0
 16 37  1  0
 16 38  1  0
 19 39  1  0
 19 40  1  0
 20 41  1  0
 20 42  1  0
 21 43  1  0
 21 44  1  0
 22 45  1  0
 22 46  1  0
 23 47  1  0
 23 48  1  0
M  END
