LIG
     RDKit          3D

 46 47  0  0  0  0  0  0  0  0999 V2000
   10.0290   -0.6240   22.5460 C   0  0  0  0  0  0  0  0  0  0  0  0
    9.1310   -0.0090   21.4750 C   0  0  0  0  0  0  0  0  0  0  0  0
    9.4550    1.0030   20.9560 O   0  0  0  0  0  0  0  0  0  0  0  0
    7.8860   -0.6570   21.1000 N   0  0  0  0  0  0  0  0  0  0  0  0
    6.7055   -0.2095   19.9370 C   0  0  0  0  0  0  0  0  0  0  0  0
    7.0830   -0.1900   18.6040 C   0  0  0  0  0  0  0  0  0  0  0  0
    6.3870    0.4690   17.7180 N   0  0  0  0  0  0  0  0  0  0  0  0
    5.3025    1.1385   18.0645 C   0  0  0  0  0  0  0  0  0  0  0  0
    4.8500    1.1845   19.3755 C   0  0  0  0  0  0  0  0  0  0  0  0
    5.5715    0.4905   20.3320 C   0  0  0  0  0  0  0  0  0  0  0  0
    5.1370    0.4895   21.7925 C   0  0  0  0  0  0  0  0  0  0  0  0
    5.2050    1.5540   22.5490 C   0  0  0  0  0  0  0  0  0  0  0  0
    4.0700    2.4460   22.4650 N   0  0  0  0  0  0  0  0  0  0  0  0
    2.9270    2.3110   23.3520 C   0  0  0  0  0  0  0  0  0  0  0  0
    2.8920    1.4710   24.2020 O   0  0  0  0  0  0  0  0  0  0  0  0
    1.8460    3.2530   23.1370 N   0  0  0  0  0  0  0  0  0  0  0  0
    0.6480    3.2940   23.9490 C   0  0  0  0  0  0  0  0  0  0  0  0
    0.5370    4.7360   24.4510 C   0  0  0  0  0  0  0  0  0  0  0  0
   -0.7860    4.9880   25.1580 C   0  0  0  0  0  0  0  0  0  0  0  0
   -1.9540    4.6680   24.2350 C   0  0  0  0  0  0  0  0  0  0  0  0
   -1.8960    3.2340   23.7250 C   0  0  0  0  0  0  0  0  0  0  0  0
   -0.5430    2.8790   23.0980 C   0  0  0  0  0  0  0  0  0  0  0  0
    9.5456   -0.4692   23.5160 H   0  0  0  0  0  0  0  0  0  0  0  0
   10.1601   -1.6956   22.4172 H   0  0  0  0  0  0  0  0  0  0  0  0
   10.9958   -0.1194   22.5447 H   0  0  0  0  0  0  0  0  0  0  0  0
    7.8737   -1.6289   21.2544 H   0  0  0  0  0  0  0  0  0  0  0  0
    7.9685   -0.6815   18.2568 H   0  0  0  0  0  0  0  0  0  0  0  0
    4.7613    1.6330   17.2710 H   0  0  0  0  0  0  0  0  0  0  0  0
    3.9400    1.7167   19.6055 H   0  0  0  0  0  0  0  0  0  0  0  0
    4.0685    0.0220   21.8101 H   0  0  0  0  0  0  0  0  0  0  0  0
    5.6936   -0.4415   22.2434 H   0  0  0  0  0  0  0  0  0  0  0  0
    5.3290    1.3515   23.6676 H   0  0  0  0  0  0  0  0  0  0  0  0
    6.0972    2.2407   22.3489 H   0  0  0  0  0  0  0  0  0  0  0  0
    4.2639    3.4332   22.3062 H   0  0  0  0  0  0  0  0  0  0  0  0
    1.7520    3.4821   22.1471 H   0  0  0  0  0  0  0  0  0  0  0  0
    0.7769    2.6263   24.7781 H   0  0  0  0  0  0  0  0  0  0  0  0
    0.6423    5.4361   23.6110 H   0  0  0  0  0  0  0  0  0  0  0  0
    1.3657    4.9546   25.1375 H   0  0  0  0  0  0  0  0  0  0  0  0
   -0.8473    4.3608   26.0522 H   0  0  0  0  0  0  0  0  0  0  0  0
   -0.8420    6.0303   25.4829 H   0  0  0  0  0  0  0  0  0  0  0  0
   -2.9003    4.8318   24.7658 H   0  0  0  0  0  0  0  0  0  0  0  0
   -1.9468    5.3593   23.3807 H   0  0  0  0  0  0  0  0  0  0  0  0
   -2.0992    2.5395   24.5564 H   0  0  0  0  0  0  0  0  0  0  0  0
   -2.6944    3.0690   22.9862 H   0  0  0  0  0  0  0  0  0  0  0  0
   -0.5190    1.7897   22.9041 H   0  0  0  0  0  0  0  0  0  0  0  0
   -0.4792    3.3516   22.0975 H   0  0  0  0  0  0  0  0  0  0  0  0
  1  2  1  0
  2  3  2  0
  2  4  1  0
  4  5  1  0
  5  6  4  0
  6  7  4  0
  7  8  4  0
  8  9  4  0
  9 10  4  0
 10 11  1  0
 11 12  1  0
 12 13  1  0
 13 14  1  0
 14 15  2  0
 14 16  1  0
 16 17  1  0
 17 18  1  0
 18 19  1  0
 19 20  1  0
 20 21  1  0
 21 22  1  0
 10  5  4  0
 22 17  1  0
  1 23  1  0
  1 24  1  0
  1 25  1  0
  4 26  1  0
  6 27  1  0
  8 28  1  0
  9 29  1  0
 11 30  1  0
 11 31  1  0
 12 32  1  0
 12 33  1  0
 13 34  1  0
 16 35  1  0
 17 36  1  0
 18 37  1  0
 18 38  1  0
 19 39  1  0
 19 40  1  0
 20 41  1  0
 20 42  1  0
 21 43  1  0
 21 44  1  0
 22 45  1  0
 22 46  1  0
M  END
