LIG
     RDKit          3D

 46 48  0  0  0  0  0  0  0  0999 V2000
    5.3930    0.6630   21.8670 C   0  0  0  0  0  0  0  0  0  0  0  0
    5.8360    0.5550   20.4100 C   0  0  0  0  0  0  0  0  0  0  0  0
    5.0650    1.0940   19.3800 C   0  0  0  0  0  0  0  0  0  0  0  0
    5.5190    0.9700   18.0740 C   0  0  0  0  0  0  0  0  0  0  0  0
    6.6520    0.3680   17.7870 N   0  0  0  0  0  0  0  0  0  0  0  0
    7.4050   -0.1450   18.7400 C   0  0  0  0  0  0  0  0  0  0  0  0
    7.0320   -0.0760   20.0760 C   0  0  0  0  0  0  0  0  0  0  0  0
    7.8860   -0.6570   21.1000 N   0  0  0  0  0  0  0  0  0  0  0  0
    9.1310   -0.0090   21.4750 C   0  0  0  0  0  0  0  0  0  0  0  0
    9.4550    1.0030   20.9560 O   0  0  0  0  0  0  0  0  0  0  0  0
   10.5470   -0.4775   23.2910 N   0  0  0  0  0  4  0  0  0  0  0  0
    9.9150   -0.3810   24.9080 C   0  0  0  0  0  0  0  0  0  0  0  0
   11.7030   -1.5600   23.6680 C   0  0  0  0  0  0  0  0  0  0  0  0
   12.7120   -1.4530   22.5630 C   0  0  0  0  0  0  0  0  0  0  0  0
   13.6620   -0.2980   22.8050 C   0  0  0  0  0  0  0  0  0  0  0  0
   12.8830    1.0330   23.0360 C   0  0  0  0  0  0  0  0  0  0  0  0
   13.4330    2.2640   22.6290 C   0  0  0  0  0  0  0  0  0  0  0  0
   12.7210    3.4490   22.8300 C   0  0  0  0  0  0  0  0  0  0  0  0
   11.4520    3.3830   23.4380 C   0  0  0  0  0  0  0  0  0  0  0  0
   10.4990    4.8830   23.7330 S   0  0  0  0  0  6  0  0  0  0  0  0
   11.4660    6.2570   23.4610 N   0  0  0  0  0  0  0  0  0  0  0  0
    9.9890    4.8060   25.0960 O   0  0  0  0  0  0  0  0  0  0  0  0
    9.2550    4.9160   22.9600 O   0  0  0  0  0  0  0  0  0  0  0  0
   10.9030    2.1690   23.8360 C   0  0  0  0  0  0  0  0  0  0  0  0
   11.6200    0.9750   23.6290 C   0  0  0  0  0  0  0  0  0  0  0  0
    6.2231    1.0191   22.4789 H   0  0  0  0  0  0  0  0  0  0  0  0
    5.0782   -0.3065   22.2568 H   0  0  0  0  0  0  0  0  0  0  0  0
    4.5473    1.3482   21.9451 H   0  0  0  0  0  0  0  0  0  0  0  0
    4.1298    1.6074   19.5665 H   0  0  0  0  0  0  0  0  0  0  0  0
    4.9505    1.3697   17.2459 H   0  0  0  0  0  0  0  0  0  0  0  0
    8.3020   -0.6101   18.3894 H   0  0  0  0  0  0  0  0  0  0  0  0
    7.6160   -1.4481   21.5381 H   0  0  0  0  0  0  0  0  0  0  0  0
    9.5544   -1.3656   25.1045 H   0  0  0  0  0  0  0  0  0  0  0  0
   10.4803   -1.1037   25.4513 H   0  0  0  0  0  0  0  0  0  0  0  0
   10.7584   -0.0979   25.4960 H   0  0  0  0  0  0  0  0  0  0  0  0
   12.0941   -1.2522   24.6096 H   0  0  0  0  0  0  0  0  0  0  0  0
   11.2139   -2.5033   23.7042 H   0  0  0  0  0  0  0  0  0  0  0  0
   12.2188   -1.3395   21.5817 H   0  0  0  0  0  0  0  0  0  0  0  0
   13.2944   -2.3883   22.4907 H   0  0  0  0  0  0  0  0  0  0  0  0
   14.2612   -0.4746   23.6950 H   0  0  0  0  0  0  0  0  0  0  0  0
   14.3216   -0.1765   21.9511 H   0  0  0  0  0  0  0  0  0  0  0  0
   14.4147    2.3097   22.1696 H   0  0  0  0  0  0  0  0  0  0  0  0
   13.1463    4.4016   22.5355 H   0  0  0  0  0  0  0  0  0  0  0  0
   11.4727    6.9353   24.2113 H   0  0  0  0  0  0  0  0  0  0  0  0
   12.0965    6.3802   24.2523 H   0  0  0  0  0  0  0  0  0  0  0  0
    9.9308    2.1580   24.3247 H   0  0  0  0  0  0  0  0  0  0  0  0
  1  2  1  0
  2  3  4  0
  3  4  4  0
  4  5  4  0
  5  6  4  0
  6  7  4  0
  7  8  1  0
  8  9  1  0
  9 10  2  0
  9 11  1  0
 11 12  1  0
 11 13  1  0
 13 14  1  0
 14 15  1  0
 15 16  1  0
 16 17  4  0
 17 18  4  0
 18 19  4  0
 19 20  1  0
 20 21  1  0
 20 22  2  0
 20 23  2  0
 19 24  4  0
 24 25  4  0
  7  2  4  0
 25 11  1  0
 25 16  4  0
  1 26  1  0
  1 27  1  0
  1 28  1  0
  3 29  1  0
  4 30  1  0
  6 31  1  0
  8 32  1  0
 12 33  1  0
 12 34  1  0
 12 35  1  0
 13 36  1  0
 13 37  1  0
 14 38  1  0
 14 39  1  0
 15 40  1  0
 15 41  1  0
 17 42  1  0
 18 43  1  0
 21 44  1  0
 21 45  1  0
 24 46  1  0
M  CHG  1  11   1
M  END
