LIG
     RDKit          3D

 45 47  0  0  0  0  0  0  0  0999 V2000
    8.9920    6.2370   22.6120 C   0  0  0  0  0  0  0  0  0  0  0  0
   10.2740    5.9430   23.3830 C   0  0  0  0  0  0  0  0  0  0  0  0
   10.3130    6.1380   24.5460 O   0  0  0  0  0  0  0  0  0  0  0  0
   11.4270    5.4110   22.6760 N   0  0  0  0  0  0  0  0  0  0  0  0
   12.6680    5.0840   23.3500 C   0  0  0  0  0  0  0  0  0  0  0  0
   13.0500    3.6550   22.9570 C   0  0  0  0  0  0  0  0  0  0  0  0
   12.0650    2.5700   23.4230 C   0  0  0  0  0  0  0  0  0  0  0  0
   10.9400    2.7480   24.2110 C   0  0  0  0  0  0  0  0  0  0  0  0
   10.3530    1.5710   24.3790 N   0  0  0  0  0  0  0  0  0  0  0  0
   11.0480    0.5960   23.7280 C   0  0  0  0  0  0  0  0  0  0  0  0
   10.4265   -0.7130   23.0780 C   0  0  0  0  0  0  0  0  0  0  0  0
    9.1310   -0.0090   21.4750 C   0  0  0  0  0  0  0  0  0  0  0  0
    9.4550    1.0030   20.9560 O   0  0  0  0  0  0  0  0  0  0  0  0
    7.8860   -0.6570   21.1000 N   0  0  0  0  0  0  0  0  0  0  0  0
    7.0320   -0.0760   20.0760 C   0  0  0  0  0  0  0  0  0  0  0  0
    7.4050   -0.1450   18.7400 C   0  0  0  0  0  0  0  0  0  0  0  0
    6.6520    0.3680   17.7870 N   0  0  0  0  0  0  0  0  0  0  0  0
    5.5190    0.9700   18.0740 C   0  0  0  0  0  0  0  0  0  0  0  0
    5.0650    1.0940   19.3800 C   0  0  0  0  0  0  0  0  0  0  0  0
    5.8360    0.5550   20.4100 C   0  0  0  0  0  0  0  0  0  0  0  0
    5.3930    0.6630   21.8670 C   0  0  0  0  0  0  0  0  0  0  0  0
   11.7080   -1.5810   22.8690 C   0  0  0  0  0  0  0  0  0  0  0  0
   12.8100   -0.9880   22.2450 C   0  0  0  0  0  0  0  0  0  0  0  0
   13.6800   -1.7440   21.5180 F   0  0  0  0  0  0  0  0  0  0  0  0
   13.0300    0.3840   22.3680 C   0  0  0  0  0  0  0  0  0  0  0  0
   12.1310    1.1860   23.1210 C   0  0  0  0  0  0  0  0  0  0  0  0
    8.1530    6.2043   23.3076 H   0  0  0  0  0  0  0  0  0  0  0  0
    8.5293    7.1289   23.0342 H   0  0  0  0  0  0  0  0  0  0  0  0
    8.2948    5.4016   22.6734 H   0  0  0  0  0  0  0  0  0  0  0  0
   11.2940    5.1559   21.7107 H   0  0  0  0  0  0  0  0  0  0  0  0
   13.4146    5.7865   23.0193 H   0  0  0  0  0  0  0  0  0  0  0  0
   12.5209    5.1660   24.4140 H   0  0  0  0  0  0  0  0  0  0  0  0
   14.0510    3.4124   23.3582 H   0  0  0  0  0  0  0  0  0  0  0  0
   13.1575    3.5671   21.8607 H   0  0  0  0  0  0  0  0  0  0  0  0
   10.5412    3.6538   24.6668 H   0  0  0  0  0  0  0  0  0  0  0  0
    9.5115    1.3718   24.9328 H   0  0  0  0  0  0  0  0  0  0  0  0
    7.6742   -1.5030   21.4641 H   0  0  0  0  0  0  0  0  0  0  0  0
    8.3129   -0.6015   18.4081 H   0  0  0  0  0  0  0  0  0  0  0  0
    4.9524    1.3683   17.2472 H   0  0  0  0  0  0  0  0  0  0  0  0
    4.1289    1.6031   19.5698 H   0  0  0  0  0  0  0  0  0  0  0  0
    4.3279    0.8891   21.9381 H   0  0  0  0  0  0  0  0  0  0  0  0
    5.5711   -0.2843   22.3777 H   0  0  0  0  0  0  0  0  0  0  0  0
    5.9414    1.4665   22.3607 H   0  0  0  0  0  0  0  0  0  0  0  0
   11.7203   -2.5601   23.2192 H   0  0  0  0  0  0  0  0  0  0  0  0
   13.9067    0.8340   21.8929 H   0  0  0  0  0  0  0  0  0  0  0  0
  1  2  1  0
  2  3  2  0
  2  4  1  0
  4  5  1  0
  5  6  1  0
  6  7  1  0
  7  8  4  0
  8  9  4  0
  9 10  4  0
 10 11  4  0
 11 12  1  0
 12 13  2  0
 12 14  1  0
 14 15  1  0
 15 16  4  0
 16 17  4  0
 17 18  4  0
 18 19  4  0
 19 20  4  0
 20 21  1  0
 11 22  4  0
 22 23  4  0
 23 24  1  0
 23 25  4  0
 25 26  4  0
 26  7  4  0
 26 10  4  0
 20 15  4  0
  1 27  1  0
  1 28  1  0
  1 29  1  0
  4 30  1  0
  5 31  1  0
  5 32  1  0
  6 33  1  0
  6 34  1  0
  8 35  1  0
  9 36  1  0
 14 37  1  0
 16 38  1  0
 18 39  1  0
 19 40  1  0
 21 41  1  0
 21 42  1  0
 21 43  1  0
 22 44  1  0
 25 45  1  0
M  END
