
     RDKit          3D

 44 47  0  0  0  0  0  0  0  0999 V2000
   13.4780   -2.9760   20.7660 N   0  0  0  0  0  0  0  0  0  0  0  0
   12.9760   -2.2770   21.5020 C   0  0  0  0  0  0  0  0  0  0  0  0
   12.2460   -1.3330   22.3440 C   0  0  0  0  0  0  0  0  0  0  0  0
   12.7840   -0.8530   23.5010 C   0  0  0  0  0  0  0  0  0  0  0  0
   11.9790    0.1230   24.2960 C   0  0  0  0  0  0  0  0  0  0  0  0
   10.6400    0.5090   23.7300 C   0  0  0  0  0  0  0  0  0  0  0  0
   10.1230    0.0110   22.5300 C   0  0  0  0  0  0  0  0  0  0  0  0
   11.0220   -0.9640   21.8880 C   0  0  0  0  0  0  0  0  0  0  0  0
    8.9270    0.3280   21.8540 C   0  0  0  0  0  0  0  0  0  0  0  0
    8.8770    1.6650   21.3500 O   0  0  0  0  0  0  0  0  0  0  0  0
    7.8880   -0.5330   21.5260 N   0  0  0  0  0  0  0  0  0  0  0  0
    6.9180   -0.0980   20.5270 C   0  0  0  0  0  0  0  0  0  0  0  0
    7.2190   -0.3100   19.0270 C   0  0  0  0  0  0  0  0  0  0  0  0
    6.2250    0.1850   18.0680 N   0  0  0  0  0  0  0  0  0  0  0  0
    5.0510    0.8120   18.5450 C   0  0  0  0  0  0  0  0  0  0  0  0
    4.8150    0.9620   19.9110 C   0  0  0  0  0  0  0  0  0  0  0  0
    5.7070    0.5250   20.9150 C   0  0  0  0  0  0  0  0  0  0  0  0
    5.3270    0.7230   22.2770 C   0  0  2  0  0  0  0  0  0  0  0  0
    4.3670    1.7230   22.5890 C   0  0  0  0  0  0  0  0  0  0  0  0
    3.5510    1.4430   23.7750 O   0  0  0  0  0  0  0  0  0  0  0  0
    4.3300    0.8670   24.8440 C   0  0  0  0  0  0  0  0  0  0  0  0
    5.5630    0.6740   24.2970 C   0  0  0  0  0  0  0  0  0  0  0  0
    6.2930    0.6360   23.4180 N   0  0  0  0  0  0  0  0  0  0  0  0
    7.4190    1.4030   23.6780 C   0  0  0  0  0  0  0  0  0  0  0  0
    7.6010    2.5550   23.2850 O   0  0  0  0  0  0  0  0  0  0  0  0
    8.3940    0.8380   24.4360 N   0  0  0  0  0  0  0  0  0  0  0  0
    9.7030    1.4290   24.2950 C   0  0  0  0  0  0  0  0  0  0  0  0
   13.7680   -1.1680   23.8440 H   0  0  0  0  0  0  0  0  0  0  0  0
   12.3940    0.4880   25.1980 H   0  0  0  0  0  0  0  0  0  0  0  0
   10.6880   -1.4000   20.9730 H   0  0  0  0  0  0  0  0  0  0  0  0
    8.1800   -1.5050   21.5300 H   0  0  0  0  0  0  0  0  0  0  0  0
    8.0970   -0.7880   18.6200 H   0  0  0  0  0  0  0  0  0  0  0  0
    4.3490    1.1630   17.7960 H   0  0  0  0  0  0  0  0  0  0  0  0
    3.8870    1.4420   20.1980 H   0  0  0  0  0  0  0  0  0  0  0  0
    4.7790   -0.1840   22.5250 H   0  0  0  0  0  0  0  0  0  0  0  0
    4.8780    2.6770   22.7660 H   0  0  0  0  0  0  0  0  0  0  0  0
    3.6770    1.8970   21.7560 H   0  0  0  0  0  0  0  0  0  0  0  0
    3.8750   -0.0850   25.1380 H   0  0  0  0  0  0  0  0  0  0  0  0
    4.3520    1.5350   25.7120 H   0  0  0  0  0  0  0  0  0  0  0  0
    6.1460    1.2840   24.9920 H   0  0  0  0  0  0  0  0  0  0  0  0
    5.7460   -0.3550   24.6350 H   0  0  0  0  0  0  0  0  0  0  0  0
    8.0990    0.9510   25.3980 H   0  0  0  0  0  0  0  0  0  0  0  0
   10.0080    1.8370   25.2480 H   0  0  0  0  0  0  0  0  0  0  0  0
    9.6110    2.3010   23.6330 H   0  0  0  0  0  0  0  0  0  0  0  0
  1  2  3  0
  2  3  1  0
  3  4  2  0
  4  5  1  0
  5  6  2  0
  6  7  1  0
  3  8  1  0
  7  8  2  0
  7  9  1  0
  9 10  2  0
  9 11  1  0
 11 12  1  0
 12 13  1  0
 13 14  2  0
 14 15  1  0
 15 16  2  0
 12 17  2  0
 16 17  1  0
 17 18  1  0
 18 19  1  0
 19 20  1  0
 20 21  1  0
 21 22  1  0
 18 23  1  0
 22 23  1  0
 23 24  1  0
 24 25  2  0
 24 26  1  0
  6 27  1  0
 26 27  1  0
  4 28  1  0
  5 29  1  0
  8 30  1  0
 11 31  1  0
 13 32  1  0
 15 33  1  0
 16 34  1  0
 18 35  1  1
 19 36  1  0
 19 37  1  0
 21 38  1  0
 21 39  1  0
 22 40  1  0
 22 41  1  0
 26 42  1  0
 27 43  1  0
 27 44  1  0
M  END
