
     RDKit          3D

 37 38  0  0  0  0  0  0  0  0999 V2000
    5.4810    1.0540   22.1140 C   0  0  0  0  0  0  0  0  0  0  0  0
    5.8160    0.7610   20.6820 C   0  0  0  0  0  0  0  0  0  0  0  0
    4.9700    1.2590   19.6800 C   0  0  0  0  0  0  0  0  0  0  0  0
    5.3260    0.9490   18.2400 C   0  0  0  0  0  0  0  0  0  0  0  0
    6.4000    0.2220   17.9260 N   0  0  0  0  0  0  0  0  0  0  0  0
    7.1760   -0.2330   18.9490 C   0  0  0  0  0  0  0  0  0  0  0  0
    6.9430    0.0060   20.2890 C   0  0  0  0  0  0  0  0  0  0  0  0
    7.8820   -0.5500   21.1500 N   0  0  0  0  0  0  0  0  0  0  0  0
    8.7710    0.3950   21.6810 C   0  0  0  0  0  0  0  0  0  0  0  0
    8.9390    1.4670   21.0870 O   0  0  0  0  0  0  0  0  0  0  0  0
    9.5240    0.3000   22.8970 C   0  0  0  0  0  0  0  0  0  0  0  0
   10.3420   -0.9110   23.3280 C   0  0  1  0  0  0  0  0  0  0  0  0
   11.1740   -1.5610   22.2230 C   0  0  0  0  0  0  0  0  0  0  0  0
   12.5320   -1.7440   22.4730 C   0  0  0  0  0  0  0  0  0  0  0  0
   13.1310   -0.8940   23.4010 C   0  0  0  0  0  0  0  0  0  0  0  0
   12.3840   -0.1940   24.3340 C   0  0  0  0  0  0  0  0  0  0  0  0
   11.0670   -0.5930   24.4920 C   0  0  0  0  0  0  0  0  0  0  0  0
    4.4940    1.5170   22.2080 H   0  0  0  0  0  0  0  0  0  0  0  0
    5.4700    0.1160   22.6760 H   0  0  0  0  0  0  0  0  0  0  0  0
    6.2320    1.7280   22.5280 H   0  0  0  0  0  0  0  0  0  0  0  0
    4.0870    1.8520   19.9060 H   0  0  0  0  0  0  0  0  0  0  0  0
    4.7250    1.3020   17.4080 H   0  0  0  0  0  0  0  0  0  0  0  0
    8.0160   -0.8150   18.5950 H   0  0  0  0  0  0  0  0  0  0  0  0
    7.5470   -1.2740   21.7690 H   0  0  0  0  0  0  0  0  0  0  0  0
    8.7750    0.3950   23.6930 H   0  0  0  0  0  0  0  0  0  0  0  0
   10.0880    1.2340   22.9160 H   0  0  0  0  0  0  0  0  0  0  0  0
    9.6290   -1.6760   23.6560 H   0  0  0  0  0  0  0  0  0  0  0  0
   10.7940   -2.5820   22.1430 H   0  0  0  0  0  0  0  0  0  0  0  0
   10.9890   -1.1930   21.2270 H   0  0  0  0  0  0  0  0  0  0  0  0
   12.7060   -2.8090   22.6510 H   0  0  0  0  0  0  0  0  0  0  0  0
   13.0590   -1.5170   21.5410 H   0  0  0  0  0  0  0  0  0  0  0  0
   13.6820   -0.1330   22.8410 H   0  0  0  0  0  0  0  0  0  0  0  0
   13.8360   -1.5070   23.9670 H   0  0  0  0  0  0  0  0  0  0  0  0
   12.4890    0.8870   24.2710 H   0  0  0  0  0  0  0  0  0  0  0  0
   12.8530   -0.4210   25.2990 H   0  0  0  0  0  0  0  0  0  0  0  0
   11.1190   -1.5210   25.0720 H   0  0  0  0  0  0  0  0  0  0  0  0
   10.4420    0.0480   25.1050 H   0  0  0  0  0  0  0  0  0  0  0  0
  1  2  1  0
  2  3  2  0
  3  4  1  0
  4  5  2  0
  5  6  1  0
  2  7  1  0
  6  7  2  0
  7  8  1  0
  8  9  1  0
  9 10  2  0
  9 11  1  0
 11 12  1  0
 12 13  1  0
 13 14  1  0
 14 15  1  0
 15 16  1  0
 12 17  1  0
 16 17  1  0
  1 18  1  0
  1 19  1  0
  1 20  1  0
  3 21  1  0
  4 22  1  0
  6 23  1  0
  8 24  1  0
 11 25  1  0
 11 26  1  0
 12 27  1  1
 13 28  1  0
 13 29  1  0
 14 30  1  0
 14 31  1  0
 15 32  1  0
 15 33  1  0
 16 34  1  0
 16 35  1  0
 17 36  1  0
 17 37  1  0
M  END
