
     RDKit          3D

 37 39  0  0  0  0  0  0  0  0999 V2000
   13.3770   -1.6450   23.5460 C   0  0  0  0  0  0  0  0  0  0  0  0
   12.0270   -1.1860   23.7380 N   0  0  0  0  0  0  0  0  0  0  0  0
   11.0990   -2.0210   22.9690 C   0  0  0  0  0  0  0  0  0  0  0  0
    9.8230   -1.4720   23.0760 C   0  0  0  0  0  0  0  0  0  0  0  0
    9.7920   -0.1490   22.7660 N   0  0  0  0  0  0  0  0  0  0  0  0
    8.9300    0.3350   21.6760 C   0  0  0  0  0  0  0  0  0  0  0  0
    9.0360    1.6600   21.1780 O   0  0  0  0  0  0  0  0  0  0  0  0
    7.9530   -0.6770   21.1670 C   0  0  0  0  0  0  0  0  0  0  0  0
    7.0850   -0.2260   20.2080 C   0  0  0  0  0  0  0  0  0  0  0  0
    7.3720   -0.5990   18.7910 C   0  0  0  0  0  0  0  0  0  0  0  0
    6.3170    0.0350   17.9940 N   0  0  0  0  0  0  0  0  0  0  0  0
    5.3880    0.7720   18.9240 C   0  0  0  0  0  0  0  0  0  0  0  0
    4.2990    1.4690   18.5210 N   0  0  0  0  0  0  0  0  0  0  0  0
    3.6360    2.0280   19.5490 C   0  0  0  0  0  0  0  0  0  0  0  0
    4.0620    1.9000   20.9850 C   0  0  0  0  0  0  0  0  0  0  0  0
    5.1740    1.1840   21.2870 C   0  0  0  0  0  0  0  0  0  0  0  0
    5.8990    0.5780   20.2670 C   0  0  0  0  0  0  0  0  0  0  0  0
   10.6240    0.7080   23.4860 C   0  0  0  0  0  0  0  0  0  0  0  0
   11.9310    0.2540   23.4190 C   0  0  0  0  0  0  0  0  0  0  0  0
   13.3790   -2.6180   23.0470 H   0  0  0  0  0  0  0  0  0  0  0  0
   13.8970   -1.7580   24.5000 H   0  0  0  0  0  0  0  0  0  0  0  0
   13.8960   -0.9280   22.9120 H   0  0  0  0  0  0  0  0  0  0  0  0
   11.3870   -2.0570   21.9110 H   0  0  0  0  0  0  0  0  0  0  0  0
   11.0960   -3.0390   23.3720 H   0  0  0  0  0  0  0  0  0  0  0  0
    9.4630   -1.5890   24.1050 H   0  0  0  0  0  0  0  0  0  0  0  0
    9.1250   -2.0390   22.4480 H   0  0  0  0  0  0  0  0  0  0  0  0
    7.4890   -1.2670   21.9570 H   0  0  0  0  0  0  0  0  0  0  0  0
    8.5630   -1.4240   20.6400 H   0  0  0  0  0  0  0  0  0  0  0  0
    8.1860   -1.2010   18.4050 H   0  0  0  0  0  0  0  0  0  0  0  0
    6.1930    0.0090   16.9900 H   0  0  0  0  0  0  0  0  0  0  0  0
    2.7310    2.6180   19.3690 H   0  0  0  0  0  0  0  0  0  0  0  0
    3.4810    2.3790   21.7810 H   0  0  0  0  0  0  0  0  0  0  0  0
    5.5170    1.0690   22.3180 H   0  0  0  0  0  0  0  0  0  0  0  0
   10.4110    1.7090   23.1150 H   0  0  0  0  0  0  0  0  0  0  0  0
   10.3130    0.6960   24.5320 H   0  0  0  0  0  0  0  0  0  0  0  0
   12.3260    0.4100   22.4100 H   0  0  0  0  0  0  0  0  0  0  0  0
   12.5690    0.8190   24.1060 H   0  0  0  0  0  0  0  0  0  0  0  0
  1  2  1  0
  2  3  1  0
  3  4  1  0
  4  5  1  0
  5  6  1  0
  6  7  2  0
  6  8  1  0
  8  9  1  0
  9 10  2  0
 10 11  1  0
 11 12  1  0
 12 13  1  0
 13 14  2  0
 14 15  1  0
 15 16  2  0
  9 17  1  0
 12 17  2  0
 16 17  1  0
  5 18  1  0
  2 19  1  0
 18 19  1  0
  1 20  1  0
  1 21  1  0
  1 22  1  0
  3 23  1  0
  3 24  1  0
  4 25  1  0
  4 26  1  0
  8 27  1  0
  8 28  1  0
 10 29  1  0
 11 30  1  0
 14 31  1  0
 15 32  1  0
 16 33  1  0
 18 34  1  0
 18 35  1  0
 19 36  1  0
 19 37  1  0
M  END
