LIG
     RDKit          3D

 38 39  0  0  0  0  0  0  0  0999 V2000
   10.0290   -0.6240   22.5460 C   0  0  0  0  0  0  0  0  0  0  0  0
    9.1310   -0.0090   21.4750 C   0  0  0  0  0  0  0  0  0  0  0  0
    9.4550    1.0030   20.9560 O   0  0  0  0  0  0  0  0  0  0  0  0
    8.1035   -1.0040   20.9485 C   0  0  0  0  0  0  0  0  0  0  0  0
    7.1970   -1.0535   19.9965 N   0  0  0  0  0  0  0  0  0  0  0  0
    7.2860   -1.6460   18.4960 C   0  0  0  0  0  0  0  0  0  0  0  0
    6.9240   -0.2505   18.5675 C   0  0  0  0  0  0  0  0  0  0  0  0
    6.5875    0.4775   17.6160 N   0  0  0  0  0  0  0  0  0  0  0  0
    5.5605    1.2570   17.9080 O   0  0  0  0  0  0  0  0  0  0  0  0
    5.0135    1.1655   19.1195 C   0  0  0  0  0  0  0  0  0  0  0  0
    3.8620    2.0560   19.5360 C   0  0  0  0  0  0  0  0  0  0  0  0
    5.6510    0.3000   19.8565 C   0  0  0  0  0  0  0  0  0  0  0  0
    5.3930    0.6630   21.8670 C   0  0  0  0  0  0  0  0  0  0  0  0
    6.4780   -3.0650   20.4600 C   0  0  0  0  0  0  0  0  0  0  0  0
    5.7050   -3.6090   19.7340 O   0  0  0  0  0  0  0  0  0  0  0  0
    6.5520   -3.4250   21.8840 N   0  0  0  0  0  0  0  0  0  0  0  0
    5.6750   -4.4640   22.4420 C   0  0  0  0  0  0  0  0  0  0  0  0
    5.9460   -5.8890   21.9520 C   0  0  0  0  0  0  0  0  0  0  0  0
    6.3670   -5.4690   23.3670 C   0  0  0  0  0  0  0  0  0  0  0  0
   10.7857   -1.2405   22.0630 H   0  0  0  0  0  0  0  0  0  0  0  0
    9.9623   -1.7102   22.4878 H   0  0  0  0  0  0  0  0  0  0  0  0
    9.4195   -1.2196   23.2237 H   0  0  0  0  0  0  0  0  0  0  0  0
    7.5598   -1.4026   21.9899 H   0  0  0  0  0  0  0  0  0  0  0  0
    8.7653   -2.0478   20.8745 H   0  0  0  0  0  0  0  0  0  0  0  0
    6.5226   -2.2146   18.4122 H   0  0  0  0  0  0  0  0  0  0  0  0
    8.2248   -1.7725   18.3460 H   0  0  0  0  0  0  0  0  0  0  0  0
    2.9394    1.7197   19.0682 H   0  0  0  0  0  0  0  0  0  0  0  0
    4.0569    3.0813   19.2300 H   0  0  0  0  0  0  0  0  0  0  0  0
    3.4262    2.5170   18.6527 H   0  0  0  0  0  0  0  0  0  0  0  0
    6.2089    1.2752   21.9722 H   0  0  0  0  0  0  0  0  0  0  0  0
    5.2946    1.6833   21.7622 H   0  0  0  0  0  0  0  0  0  0  0  0
    4.4639    1.0901   21.7766 H   0  0  0  0  0  0  0  0  0  0  0  0
    6.7925   -2.6652   22.4764 H   0  0  0  0  0  0  0  0  0  0  0  0
    7.6476   -4.7708   21.9439 H   0  0  0  0  0  0  0  0  0  0  0  0
    6.7258   -6.0177   21.2251 H   0  0  0  0  0  0  0  0  0  0  0  0
    5.1122   -6.5606   21.8694 H   0  0  0  0  0  0  0  0  0  0  0  0
    7.4140   -5.3195   23.5500 H   0  0  0  0  0  0  0  0  0  0  0  0
    5.7985   -5.8600   24.1890 H   0  0  0  0  0  0  0  0  0  0  0  0
  1  2  1  0
  2  3  2  0
  2  4  1  0
  4  5  1  0
  5  6  1  0
  6  7  1  0
  7  8  4  0
  8  9  4  0
  9 10  4  0
 10 11  1  0
 10 12  4  0
 12 13  1  0
  5 14  1  0
 14 15  2  0
 14 16  1  0
 16 17  1  0
 17 18  1  0
 18 19  1  0
 12  7  4  0
 19 17  1  0
  1 20  1  0
  1 21  1  0
  1 22  1  0
  4 23  1  0
  4 24  1  0
  6 25  1  0
  6 26  1  0
 11 27  1  0
 11 28  1  0
 11 29  1  0
 13 30  1  0
 13 31  1  0
 13 32  1  0
 16 33  1  0
 17 34  1  0
 18 35  1  0
 18 36  1  0
 19 37  1  0
 19 38  1  0
M  END
