
     RDKit          3D

 44 46  0  0  0  0  0  0  0  0999 V2000
    9.0640    6.6530   22.5660 C   0  0  0  0  0  0  0  0  0  0  0  0
   10.2620    6.2420   23.3840 C   0  0  0  0  0  0  0  0  0  0  0  0
   10.3040    6.3680   24.6050 O   0  0  0  0  0  0  0  0  0  0  0  0
   11.2780    5.7170   22.6310 N   0  0  0  0  0  0  0  0  0  0  0  0
   12.4620    5.1490   23.2690 C   0  0  0  0  0  0  0  0  0  0  0  0
   12.7790    3.7420   22.7640 C   0  0  0  0  0  0  0  0  0  0  0  0
   11.7120    2.7320   23.0550 C   0  0  0  0  0  0  0  0  0  0  0  0
   10.4300    3.0960   23.3620 C   0  0  0  0  0  0  0  0  0  0  0  0
   10.6180    1.9370   23.6180 N   0  0  0  0  0  0  0  0  0  0  0  0
   10.3130    0.7340   23.2080 C   0  0  0  0  0  0  0  0  0  0  0  0
   10.2180   -0.6190   22.7260 C   0  0  0  0  0  0  0  0  0  0  0  0
    8.9590   -1.0790   22.6630 N   0  0  0  0  0  0  0  0  0  0  0  0
    8.3280   -0.3110   21.7160 C   0  0  0  0  0  0  0  0  0  0  0  0
    8.7570    0.7820   21.3570 O   0  0  0  0  0  0  0  0  0  0  0  0
    7.1640   -0.8310   21.1720 N   0  0  0  0  0  0  0  0  0  0  0  0
    6.4980   -0.1530   20.1190 C   0  0  0  0  0  0  0  0  0  0  0  0
    5.3200    0.5420   20.3730 C   0  0  0  0  0  0  0  0  0  0  0  0
    4.6670    1.2260   19.3440 C   0  0  0  0  0  0  0  0  0  0  0  0
    5.2100    1.2030   18.0730 C   0  0  0  0  0  0  0  0  0  0  0  0
    6.3380    0.5420   17.7880 N   0  0  0  0  0  0  0  0  0  0  0  0
    6.9580   -0.1210   18.7970 C   0  0  0  0  0  0  0  0  0  0  0  0
   11.2800   -1.4500   22.3490 C   0  0  0  0  0  0  0  0  0  0  0  0
   12.6610   -0.9360   22.3500 C   0  0  0  0  0  0  0  0  0  0  0  0
   13.6590   -1.7280   22.0120 F   0  0  0  0  0  0  0  0  0  0  0  0
   12.8280    0.3740   22.6420 C   0  0  0  0  0  0  0  0  0  0  0  0
   11.7290    1.1650   22.9890 C   0  0  0  0  0  0  0  0  0  0  0  0
    8.3990    7.3160   23.1240 H   0  0  0  0  0  0  0  0  0  0  0  0
    9.4100    7.1850   21.6790 H   0  0  0  0  0  0  0  0  0  0  0  0
    8.5110    5.7590   22.2650 H   0  0  0  0  0  0  0  0  0  0  0  0
   11.0580    5.4670   21.6630 H   0  0  0  0  0  0  0  0  0  0  0  0
   12.3080    5.1540   24.3550 H   0  0  0  0  0  0  0  0  0  0  0  0
   13.2940    5.8290   23.0510 H   0  0  0  0  0  0  0  0  0  0  0  0
   12.8790    3.8170   21.6760 H   0  0  0  0  0  0  0  0  0  0  0  0
   13.7370    3.4090   23.1000 H   0  0  0  0  0  0  0  0  0  0  0  0
   10.0890    4.1020   23.5580 H   0  0  0  0  0  0  0  0  0  0  0  0
   10.1830    2.0380   24.5240 H   0  0  0  0  0  0  0  0  0  0  0  0
    8.8380   -2.0790   22.6060 H   0  0  0  0  0  0  0  0  0  0  0  0
    6.5900   -1.3930   21.7800 H   0  0  0  0  0  0  0  0  0  0  0  0
    4.9530    0.5200   21.4010 H   0  0  0  0  0  0  0  0  0  0  0  0
    3.7490    1.7700   19.5400 H   0  0  0  0  0  0  0  0  0  0  0  0
    4.7330    1.7310   17.2500 H   0  0  0  0  0  0  0  0  0  0  0  0
    7.8610   -0.6320   18.4840 H   0  0  0  0  0  0  0  0  0  0  0  0
   11.0870   -2.4850   22.0460 H   0  0  0  0  0  0  0  0  0  0  0  0
   13.8210    0.7990   22.5580 H   0  0  0  0  0  0  0  0  0  0  0  0
  1  2  1  0
  2  3  2  0
  2  4  1  0
  4  5  1  0
  5  6  1  0
  6  7  1  0
  7  8  2  0
  8  9  1  0
  9 10  1  0
 10 11  1  0
 11 12  1  0
 12 13  1  0
 13 14  2  0
 13 15  1  0
 15 16  1  0
 16 17  2  0
 17 18  1  0
 18 19  2  0
 19 20  1  0
 16 21  1  0
 20 21  2  0
 11 22  2  0
 22 23  1  0
 23 24  1  0
 23 25  2  0
  7 26  1  0
 10 26  2  0
 25 26  1  0
  1 27  1  0
  1 28  1  0
  1 29  1  0
  4 30  1  0
  5 31  1  0
  5 32  1  0
  6 33  1  0
  6 34  1  0
  8 35  1  0
  9 36  1  0
 12 37  1  0
 15 38  1  0
 17 39  1  0
 18 40  1  0
 19 41  1  0
 21 42  1  0
 22 43  1  0
 25 44  1  0
M  END
