
     RDKit          3D

 36 37  0  0  0  0  0  0  0  0999 V2000
    8.3220   -0.0920   27.1330 C   0  0  0  0  0  0  0  0  0  0  0  0
    8.3630   -0.0760   25.6330 C   0  0  0  0  0  0  0  0  0  0  0  0
    9.3840    0.6660   25.0780 N   0  0  0  0  0  0  0  0  0  0  0  0
   10.3170   -0.0010   24.2000 C   0  0  0  0  0  0  0  0  0  0  0  0
   11.4800   -0.3940   24.7690 N   0  0  0  0  0  0  0  0  0  0  0  0
   12.4970   -1.0830   23.9730 C   0  0  0  0  0  0  0  0  0  0  0  0
   12.1830   -1.3410   22.5550 C   0  0  0  0  0  0  0  0  0  0  0  0
   12.9430   -1.9560   21.6350 C   0  0  0  0  0  0  0  0  0  0  0  0
   13.5010   -2.4580   20.7980 N   0  0  0  0  0  0  0  0  0  0  0  0
   10.9820   -0.9140   22.0680 C   0  0  0  0  0  0  0  0  0  0  0  0
   10.0440   -0.2390   22.8140 C   0  0  0  0  0  0  0  0  0  0  0  0
    8.7860    0.2280   22.0600 C   0  0  0  0  0  0  0  0  0  0  0  0
    8.6580    1.4420   22.0310 O   0  0  0  0  0  0  0  0  0  0  0  0
    7.9220   -0.6470   21.3790 N   0  0  0  0  0  0  0  0  0  0  0  0
    6.9800   -0.1590   20.4060 C   0  0  0  0  0  0  0  0  0  0  0  0
    7.2000   -0.3880   19.0480 C   0  0  0  0  0  0  0  0  0  0  0  0
    6.3960    0.0430   18.0340 N   0  0  0  0  0  0  0  0  0  0  0  0
    5.3030    0.7330   18.3620 C   0  0  0  0  0  0  0  0  0  0  0  0
    4.9820    1.0090   19.6760 C   0  0  0  0  0  0  0  0  0  0  0  0
    5.8070    0.5710   20.7120 C   0  0  0  0  0  0  0  0  0  0  0  0
    5.4400    0.8770   22.0340 C   0  0  0  0  0  0  0  0  0  0  0  0
    7.8580    0.8090   27.5350 H   0  0  0  0  0  0  0  0  0  0  0  0
    7.7280   -0.9480   27.4620 H   0  0  0  0  0  0  0  0  0  0  0  0
    9.3410   -0.1820   27.5160 H   0  0  0  0  0  0  0  0  0  0  0  0
    8.4490   -1.1160   25.3010 H   0  0  0  0  0  0  0  0  0  0  0  0
    7.4060    0.3140   25.2710 H   0  0  0  0  0  0  0  0  0  0  0  0
    9.8380    1.2550   25.7830 H   0  0  0  0  0  0  0  0  0  0  0  0
   13.4640   -1.4180   24.3700 H   0  0  0  0  0  0  0  0  0  0  0  0
   10.7570   -1.1030   21.0330 H   0  0  0  0  0  0  0  0  0  0  0  0
    8.2500   -1.5950   21.2380 H   0  0  0  0  0  0  0  0  0  0  0  0
    8.0560   -0.9400   18.6840 H   0  0  0  0  0  0  0  0  0  0  0  0
    4.6800    1.0640   17.5370 H   0  0  0  0  0  0  0  0  0  0  0  0
    4.0760    1.5740   19.8830 H   0  0  0  0  0  0  0  0  0  0  0  0
    4.5230    1.4770   22.0440 H   0  0  0  0  0  0  0  0  0  0  0  0
    5.2860   -0.0410   22.6090 H   0  0  0  0  0  0  0  0  0  0  0  0
    6.2230    1.4560   22.5320 H   0  0  0  0  0  0  0  0  0  0  0  0
  1  2  1  0
  2  3  1  0
  3  4  1  0
  4  5  2  0
  5  6  1  0
  6  7  2  0
  7  8  1  0
  8  9  3  0
  7 10  1  0
  4 11  1  0
 10 11  2  0
 11 12  1  0
 12 13  2  0
 12 14  1  0
 14 15  1  0
 15 16  2  0
 16 17  1  0
 17 18  2  0
 18 19  1  0
 15 20  1  0
 19 20  2  0
 20 21  1  0
  1 22  1  0
  1 23  1  0
  1 24  1  0
  2 25  1  0
  2 26  1  0
  3 27  1  0
  6 28  1  0
 10 29  1  0
 14 30  1  0
 16 31  1  0
 18 32  1  0
 19 33  1  0
 21 34  1  0
 21 35  1  0
 21 36  1  0
M  END
