
     RDKit          3D

 48 50  0  0  0  0  0  0  0  0999 V2000
    9.0150    6.6830   22.5230 C   0  0  0  0  0  0  0  0  0  0  0  0
   10.1800    6.2460   23.3690 C   0  0  0  0  0  0  0  0  0  0  0  0
   10.2060    6.3920   24.5880 O   0  0  0  0  0  0  0  0  0  0  0  0
   11.1920    5.6740   22.6440 N   0  0  0  0  0  0  0  0  0  0  0  0
   12.2910    5.0130   23.3250 C   0  0  0  0  0  0  0  0  0  0  0  0
   12.6150    3.6500   22.7120 C   0  0  0  0  0  0  0  0  0  0  0  0
   11.5740    2.5890   22.9510 C   0  0  0  0  0  0  0  0  0  0  0  0
   10.2710    2.8240   23.3370 C   0  0  0  0  0  0  0  0  0  0  0  0
    9.6060    1.6220   23.4240 N   0  0  0  0  0  0  0  0  0  0  0  0
   10.4340    0.5680   23.0980 C   0  0  0  0  0  0  0  0  0  0  0  0
   10.1370   -0.8350   23.0380 C   0  0  0  0  0  0  0  0  0  0  0  0
    8.7860   -1.5010   23.3500 C   0  0  0  0  0  0  0  0  0  0  0  0
    8.6580   -2.3730   24.4590 N   0  0  0  0  0  0  0  0  0  0  0  0
    7.5080   -2.4280   25.3820 C   0  0  0  0  0  0  0  0  0  0  0  0
    7.5140   -3.2750   26.4890 C   0  0  0  0  0  0  0  0  0  0  0  0
    8.0900   -4.5110   26.2550 C   0  0  2  0  0  0  0  0  0  0  0  0
    8.7570   -4.8950   27.4520 O   0  0  0  0  0  0  0  0  0  0  0  0
    8.9480   -4.6630   25.1850 C   0  0  0  0  0  0  0  0  0  0  0  0
    8.9440   -3.7550   24.0960 C   0  0  0  0  0  0  0  0  0  0  0  0
   11.2080   -1.6230   22.6340 C   0  0  0  0  0  0  0  0  0  0  0  0
   12.5650   -1.0410   22.3420 C   0  0  0  0  0  0  0  0  0  0  0  0
   13.5510   -1.8400   21.9750 F   0  0  0  0  0  0  0  0  0  0  0  0
   12.7590    0.3150   22.4600 C   0  0  0  0  0  0  0  0  0  0  0  0
   11.6980    1.1490   22.8110 C   0  0  0  0  0  0  0  0  0  0  0  0
    8.3440    7.3520   23.0730 H   0  0  0  0  0  0  0  0  0  0  0  0
    8.4480    5.8030   22.2080 H   0  0  0  0  0  0  0  0  0  0  0  0
    9.3920    7.2030   21.6430 H   0  0  0  0  0  0  0  0  0  0  0  0
   10.9800    5.4290   21.6730 H   0  0  0  0  0  0  0  0  0  0  0  0
   13.1710    5.6670   23.2840 H   0  0  0  0  0  0  0  0  0  0  0  0
   12.0010    4.9130   24.3750 H   0  0  0  0  0  0  0  0  0  0  0  0
   13.5890    3.3150   23.0440 H   0  0  0  0  0  0  0  0  0  0  0  0
   12.7140    3.7900   21.6340 H   0  0  0  0  0  0  0  0  0  0  0  0
    9.7530    3.7500   23.5530 H   0  0  0  0  0  0  0  0  0  0  0  0
    8.6340    1.5200   23.6850 H   0  0  0  0  0  0  0  0  0  0  0  0
    8.5000   -2.0720   22.4590 H   0  0  0  0  0  0  0  0  0  0  0  0
    8.0470   -0.6930   23.3940 H   0  0  0  0  0  0  0  0  0  0  0  0
    6.6670   -2.7930   24.7830 H   0  0  0  0  0  0  0  0  0  0  0  0
    7.2730   -1.3810   25.5950 H   0  0  0  0  0  0  0  0  0  0  0  0
    8.1090   -2.8780   27.3180 H   0  0  0  0  0  0  0  0  0  0  0  0
    6.5370   -3.3440   26.9780 H   0  0  0  0  0  0  0  0  0  0  0  0
    7.3550   -5.3130   26.1000 H   0  0  0  0  0  0  0  0  0  0  0  0
    9.0480   -5.8220   27.3480 H   0  0  0  0  0  0  0  0  0  0  0  0
    9.9620   -4.7870   25.5470 H   0  0  0  0  0  0  0  0  0  0  0  0
    8.7000   -5.6410   24.7690 H   0  0  0  0  0  0  0  0  0  0  0  0
    8.2090   -4.1050   23.3650 H   0  0  0  0  0  0  0  0  0  0  0  0
    9.9000   -3.7980   23.5910 H   0  0  0  0  0  0  0  0  0  0  0  0
   11.1540   -2.7120   22.5130 H   0  0  0  0  0  0  0  0  0  0  0  0
   13.7360    0.7120   22.2560 H   0  0  0  0  0  0  0  0  0  0  0  0
  1  2  1  0
  2  3  2  0
  2  4  1  0
  4  5  1  0
  5  6  1  0
  6  7  1  0
  7  8  2  0
  8  9  1  0
  9 10  1  0
 10 11  1  0
 11 12  1  0
 12 13  1  0
 13 14  1  0
 14 15  1  0
 15 16  1  0
 16 17  1  0
 16 18  1  0
 13 19  1  0
 18 19  1  0
 11 20  2  0
 20 21  1  0
 21 22  1  0
 21 23  2  0
  7 24  1  0
 10 24  2  0
 23 24  1  0
  1 25  1  0
  1 26  1  0
  1 27  1  0
  4 28  1  0
  5 29  1  0
  5 30  1  0
  6 31  1  0
  6 32  1  0
  8 33  1  0
  9 34  1  0
 12 35  1  0
 12 36  1  0
 14 37  1  0
 14 38  1  0
 15 39  1  0
 15 40  1  0
 16 41  1  6
 17 42  1  0
 18 43  1  0
 18 44  1  0
 19 45  1  0
 19 46  1  0
 20 47  1  0
 23 48  1  0
M  END
