LIG
     RDKit          3D

 41 44  0  0  0  0  0  0  0  0999 V2000
   13.6250   -2.3810   24.3190 C   0  0  0  0  0  0  0  0  0  0  0  0
   13.1350   -1.0850   24.5660 O   0  0  0  0  0  0  0  0  0  0  0  0
   13.2725    0.0925   23.1870 C   0  0  0  0  0  0  0  0  0  0  0  0
   13.5275   -0.7165   22.2060 O   0  0  0  0  0  3  0  0  0  0  0  0
   11.4160   -1.3800   22.1780 C   0  0  0  0  0  0  0  0  0  0  0  0
   11.0330   -0.3810   23.0940 C   0  0  0  0  0  0  0  0  0  0  0  0
    9.6050   -0.2970   23.6880 C   0  0  2  0  0  0  0  0  0  0  0  0
    8.6870   -1.0390   23.0120 C   0  0  0  0  0  0  0  0  0  0  0  0
    7.3150   -0.3490   23.3420 C   0  0  0  0  0  0  0  0  0  0  0  0
    7.6990    1.1640   23.7480 C   0  0  0  0  0  0  0  0  0  0  0  0
    9.0240    1.2620   23.5980 C   0  0  2  0  0  0  0  0  0  0  0  0
    9.4080    1.9150   22.2270 C   0  0  0  0  0  0  0  0  0  0  0  0
    9.0780    1.4060   21.1760 O   0  0  0  0  0  0  0  0  0  0  0  0
   10.6700    3.3690   22.9880 C   0  0  0  0  0  0  0  0  0  0  0  0
   10.2820    5.1680   23.8420 S   0  0  0  0  0  6  0  0  0  0  0  0
    8.8600    5.1380   22.8970 N   0  0  0  0  0  0  0  0  0  0  0  0
    9.9940    5.5050   25.2370 O   0  0  0  0  0  0  0  0  0  0  0  0
   11.1550    6.2720   23.4300 O   0  0  0  0  0  0  0  0  0  0  0  0
   10.5980    2.4480   24.3410 C   0  0  0  0  0  0  0  0  0  0  0  0
   13.0360    2.3020   23.0200 C   0  0  0  0  0  0  0  0  0  0  0  0
   12.2635    0.8580   23.5360 C   0  0  0  0  0  0  0  0  0  0  0  0
   11.2750    1.2380   24.2650 C   0  0  0  0  0  0  0  0  0  0  0  0
   12.3650    3.5080   23.0890 C   0  0  0  0  0  0  0  0  0  0  0  0
   14.0566   -2.7755   25.2465 H   0  0  0  0  0  0  0  0  0  0  0  0
   12.8150   -3.0533   24.0066 H   0  0  0  0  0  0  0  0  0  0  0  0
   14.4145   -2.3624   23.5562 H   0  0  0  0  0  0  0  0  0  0  0  0
   11.5266   -2.0993   21.6728 H   0  0  0  0  0  0  0  0  0  0  0  0
    9.7526   -0.4700   24.7531 H   0  0  0  0  0  0  0  0  0  0  0  0
    8.7512   -1.1598   21.9000 H   0  0  0  0  0  0  0  0  0  0  0  0
    8.5865   -2.0953   23.3704 H   0  0  0  0  0  0  0  0  0  0  0  0
    6.8063   -0.8410   24.1529 H   0  0  0  0  0  0  0  0  0  0  0  0
    6.6818   -0.3190   22.4687 H   0  0  0  0  0  0  0  0  0  0  0  0
    7.2995    1.3166   24.7829 H   0  0  0  0  0  0  0  0  0  0  0  0
    7.0401    1.8144   23.1168 H   0  0  0  0  0  0  0  0  0  0  0  0
    9.5878    1.7567   24.2432 H   0  0  0  0  0  0  0  0  0  0  0  0
    8.4507    4.2064   22.9308 H   0  0  0  0  0  0  0  0  0  0  0  0
    9.0889    5.4445   21.9493 H   0  0  0  0  0  0  0  0  0  0  0  0
   10.9545    2.0091   24.7606 H   0  0  0  0  0  0  0  0  0  0  0  0
   12.9463    2.9699   23.0949 H   0  0  0  0  0  0  0  0  0  0  0  0
   10.7509    1.9448   24.6130 H   0  0  0  0  0  0  0  0  0  0  0  0
   12.9115    3.1998   23.3064 H   0  0  0  0  0  0  0  0  0  0  0  0
  1  2  1  0
  2  3  1  0
  3  4  2  0
  4  5  1  0
  5  6  2  0
  6  7  1  0
  7  8  1  0
  8  9  1  0
  9 10  1  0
 10 11  1  0
 11 12  1  0
 12 13  2  0
 12 14  1  0
 14 15  1  0
 15 16  1  0
 15 17  2  0
 15 18  2  0
 14 19  1  0
 19 20  2  0
 20 21  1  0
 21 22  1  0
 22 23  2  0
 21  3  1  0
 21  6  1  0
 11  7  1  0
 23 14  1  0
  1 24  1  0
  1 25  1  0
  1 26  1  0
  5 27  1  0
  7 28  1  1
  8 29  1  0
  8 30  1  0
  9 31  1  0
  9 32  1  0
 10 33  1  0
 10 34  1  0
 11 35  1  1
 16 36  1  0
 16 37  1  0
 19 38  1  0
 20 39  1  0
 22 40  1  0
 23 41  1  0
M  CHG  1   4   1
M  END
