
     RDKit          3D

 45 47  0  0  0  0  0  0  0  0999 V2000
   12.1680   -1.5430   24.5720 C   0  0  0  0  0  0  0  0  0  0  0  0
   11.4220   -0.7970   23.5630 O   0  0  0  0  0  0  0  0  0  0  0  0
   12.3340    0.0140   22.9820 C   0  0  0  0  0  0  0  0  0  0  0  0
   13.1260   -0.7480   22.4870 C   0  0  0  0  0  0  0  0  0  0  0  0
   13.4510   -2.1670   22.2180 C   0  0  0  0  0  0  0  0  0  0  0  0
   13.2610   -2.6170   20.9740 N   0  0  0  0  0  0  0  0  0  0  0  0
   11.9130   -1.2900   23.1380 C   0  0  0  0  0  0  0  0  0  0  0  0
   10.7830   -0.4810   23.7690 C   0  0  0  0  0  0  0  0  0  0  0  0
   10.9130    1.0940   23.7140 C   0  0  0  0  0  0  0  0  0  0  0  0
   10.1070    2.1770   24.0980 C   0  0  0  0  0  0  0  0  0  0  0  0
    8.8750    1.8750   24.6800 N   0  0  0  0  0  0  0  0  0  0  0  0
    7.6150    2.1810   24.0320 C   0  0  0  0  0  0  0  0  0  0  0  0
    7.4710    3.2780   23.5320 O   0  0  0  0  0  0  0  0  0  0  0  0
    6.6220    1.2070   23.9760 N   0  0  0  0  0  0  0  0  0  0  0  0
    5.8650    1.0200   22.7190 C   0  0  0  0  0  0  0  0  0  0  0  0
    4.6110    1.5770   22.6040 C   0  0  0  0  0  0  0  0  0  0  0  0
    3.8630    1.3290   23.8060 O   0  0  0  0  0  0  0  0  0  0  0  0
    4.5170    0.4090   24.7020 C   0  0  0  0  0  0  0  0  0  0  0  0
    5.7520    0.9210   25.1380 C   0  0  0  0  0  0  0  0  0  0  0  0
   10.6590    3.5210   23.7930 C   0  0  0  0  0  0  0  0  0  0  0  0
    9.9840    5.1940   24.0440 S   0  0  2  0  0  0  0  0  0  0  0  0
    8.7810    5.3050   22.8790 N   0  0  0  0  0  0  0  0  0  0  0  0
   10.9660    6.1730   23.6210 O   0  0  0  0  0  0  0  0  0  0  0  0
    9.2660    5.3250   25.2820 O   0  0  0  0  0  0  0  0  0  0  0  0
   11.9310    3.7160   23.1830 C   0  0  0  0  0  0  0  0  0  0  0  0
   12.6910    2.4800   22.8400 C   0  0  0  0  0  0  0  0  0  0  0  0
   12.1270    1.2950   23.1160 C   0  0  0  0  0  0  0  0  0  0  0  0
   11.5650   -2.4010   24.8790 H   0  0  0  0  0  0  0  0  0  0  0  0
   12.3410   -0.9160   25.4500 H   0  0  0  0  0  0  0  0  0  0  0  0
   13.1330   -1.9060   24.2050 H   0  0  0  0  0  0  0  0  0  0  0  0
   11.8020   -2.3810   23.1570 H   0  0  0  0  0  0  0  0  0  0  0  0
    9.9070   -0.9520   24.2190 H   0  0  0  0  0  0  0  0  0  0  0  0
    8.8060    1.0400   25.2400 H   0  0  0  0  0  0  0  0  0  0  0  0
    6.4890    1.3850   21.8950 H   0  0  0  0  0  0  0  0  0  0  0  0
    5.7790   -0.0640   22.5870 H   0  0  0  0  0  0  0  0  0  0  0  0
    4.0870    1.0880   21.7820 H   0  0  0  0  0  0  0  0  0  0  0  0
    4.5020    2.6400   22.4210 H   0  0  0  0  0  0  0  0  0  0  0  0
    3.7720    0.2060   25.4650 H   0  0  0  0  0  0  0  0  0  0  0  0
    4.5610   -0.5200   24.1380 H   0  0  0  0  0  0  0  0  0  0  0  0
    5.6780    1.8330   25.7240 H   0  0  0  0  0  0  0  0  0  0  0  0
    6.3550    0.2460   25.7360 H   0  0  0  0  0  0  0  0  0  0  0  0
    9.2080    5.2490   21.9380 H   0  0  0  0  0  0  0  0  0  0  0  0
    8.0990    4.5670   23.0560 H   0  0  0  0  0  0  0  0  0  0  0  0
   12.2510    4.7500   23.0110 H   0  0  0  0  0  0  0  0  0  0  0  0
   13.6460    2.6230   22.3870 H   0  0  0  0  0  0  0  0  0  0  0  0
  1  2  1  0
  2  3  1  0
  3  4  2  0
  4  5  1  0
  5  6  3  0
  4  7  1  0
  7  8  2  0
  8  9  1  0
  9 10  1  0
 10 11  1  0
 11 12  1  0
 12 13  2  0
 12 14  1  0
 14 15  1  0
 15 16  1  0
 16 17  1  0
 17 18  1  0
 14 19  1  0
 18 19  1  0
 10 20  2  0
 20 21  1  0
 21 22  1  6
 21 23  2  0
 21 24  2  0
 20 25  1  0
 25 26  2  0
  3 27  1  0
  9 27  2  0
 26 27  1  0
  1 28  1  0
  1 29  1  0
  1 30  1  0
  7 31  1  0
  8 32  1  0
 11 33  1  0
 15 34  1  0
 15 35  1  0
 16 36  1  0
 16 37  1  0
 18 38  1  0
 18 39  1  0
 19 40  1  0
 19 41  1  0
 22 42  1  0
 22 43  1  0
 25 44  1  0
 26 45  1  0
M  END
