LIG
     RDKit          3D

 32 33  0  0  0  0  0  0  0  0999 V2000
   13.6250   -2.3810   24.3190 C   0  0  0  0  0  0  0  0  0  0  0  0
   12.4190   -1.3225   24.1170 C   0  0  0  0  0  0  0  0  0  0  0  0
   12.9825   -0.8035   23.0440 C   0  0  0  0  0  0  0  0  0  0  0  0
   13.8060   -0.3340   22.7005 C   0  0  0  0  0  0  0  0  0  0  0  0
   12.6880    1.1005   23.3200 C   0  0  0  0  0  0  0  0  0  0  0  0
   13.2345    2.2830   22.8245 C   0  0  0  0  0  0  0  0  0  0  0  0
   12.5430    3.4785   22.9595 C   0  0  0  0  0  0  0  0  0  0  0  0
   11.2995    3.4820   23.5940 C   0  0  0  0  0  0  0  0  0  0  0  0
   10.3905    5.0255   23.7875 S   0  0  0  0  0  6  0  0  0  0  0  0
   11.3105    6.2645   23.4455 N   0  0  0  0  0  0  0  0  0  0  0  0
    9.0575    5.0270   22.9285 O   0  0  0  0  0  0  0  0  0  0  0  0
    9.9915    5.1555   25.1665 O   0  0  0  0  0  0  0  0  0  0  0  0
   10.7505    2.3085   24.0885 C   0  0  0  0  0  0  0  0  0  0  0  0
   11.4475    1.1065   23.9470 C   0  0  0  0  0  0  0  0  0  0  0  0
   11.0650   -0.3310   24.0360 N   0  0  0  0  0  0  0  0  0  0  0  0
    9.9150   -0.3810   24.9080 C   0  0  0  0  0  0  0  0  0  0  0  0
   14.1278   -2.5539   23.3804 H   0  0  0  0  0  0  0  0  0  0  0  0
   14.3277   -1.9837   25.0391 H   0  0  0  0  0  0  0  0  0  0  0  0
   13.2122   -3.3148   24.6760 H   0  0  0  0  0  0  0  0  0  0  0  0
   13.1328   -0.2649   24.8230 H   0  0  0  0  0  0  0  0  0  0  0  0
   11.9188   -0.1845   22.5214 H   0  0  0  0  0  0  0  0  0  0  0  0
   12.6617   -1.7430   22.1534 H   0  0  0  0  0  0  0  0  0  0  0  0
   13.8992    0.1123   21.7108 H   0  0  0  0  0  0  0  0  0  0  0  0
   14.6422    0.0301   23.3180 H   0  0  0  0  0  0  0  0  0  0  0  0
   14.1969    2.2809   22.3189 H   0  0  0  0  0  0  0  0  0  0  0  0
   12.9674    4.4005   22.5630 H   0  0  0  0  0  0  0  0  0  0  0  0
   12.2235    6.2223   23.9371 H   0  0  0  0  0  0  0  0  0  0  0  0
   12.2442    5.9758   23.0962 H   0  0  0  0  0  0  0  0  0  0  0  0
    9.7819    2.3350   24.5610 H   0  0  0  0  0  0  0  0  0  0  0  0
    9.1557   -1.0934   24.5486 H   0  0  0  0  0  0  0  0  0  0  0  0
    9.7504   -1.3781   25.3392 H   0  0  0  0  0  0  0  0  0  0  0  0
   10.2007   -0.6551   25.9339 H   0  0  0  0  0  0  0  0  0  0  0  0
  1  2  1  0
  2  3  1  0
  3  4  1  0
  4  5  1  0
  5  6  4  0
  6  7  4  0
  7  8  4  0
  8  9  1  0
  9 10  1  0
  9 11  2  0
  9 12  2  0
  8 13  4  0
 13 14  4  0
 14 15  1  0
 15 16  1  0
 15  2  1  0
 14  5  4  0
  1 17  1  0
  1 18  1  0
  1 19  1  0
  2 20  1  0
  3 21  1  0
  3 22  1  0
  4 23  1  0
  4 24  1  0
  6 25  1  0
  7 26  1  0
 10 27  1  0
 10 28  1  0
 13 29  1  0
 16 30  1  0
 16 31  1  0
 16 32  1  0
M  END
