LIG
     RDKit          3D

 48 50  0  0  0  0  0  0  0  0999 V2000
   24.8960  -19.9010   19.9700 C   0  0  0  0  0  0  0  0  0  0  0  0
   23.7980  -20.7320   20.2510 O   0  0  0  0  0  0  0  0  0  0  0  0
   23.5700  -21.8020   19.4120 C   0  0  0  0  0  0  0  0  0  0  0  0
   24.2490  -22.0500   18.4380 O   0  0  0  0  0  0  0  0  0  0  0  0
   22.6925  -22.3875   20.0870 N   0  0  0  0  0  0  0  0  0  0  0  0
   22.2240  -22.0380   21.5910 C   0  0  0  0  0  0  0  0  0  0  0  0
   21.1920  -22.5860   21.7840 O   0  0  0  0  0  0  0  0  0  0  0  0
   22.7540  -21.1280   22.6050 N   0  0  0  0  0  0  0  0  0  0  0  0
   22.0860  -20.8710   23.8350 C   0  0  0  0  0  0  0  0  0  0  0  0
   21.9690  -19.3780   24.1750 C   0  0  0  0  0  0  0  0  0  0  0  0
   23.1680  -18.6610   24.0280 N   0  0  0  0  0  0  0  0  0  0  0  0
   23.0570  -17.4280   24.3160 C   0  0  0  0  0  0  0  0  0  0  0  0
   23.7850  -18.9030   22.7950 C   0  0  0  0  0  0  0  0  0  0  0  0
   23.9770  -20.3910   22.5380 C   0  0  0  0  0  0  0  0  0  0  0  0
   22.2035  -23.4035   19.2565 C   0  0  0  0  0  0  0  0  0  0  0  0
   22.0030  -24.8245   19.7850 S   0  0  0  0  0  0  0  0  0  0  0  0
   21.4135  -25.5705   18.5535 C   0  0  0  0  0  0  0  0  0  0  0  0
   20.9070  -27.2570   18.3710 C   0  0  0  0  0  0  0  0  0  0  0  0
   21.2585  -24.9180   17.4110 N   0  0  0  0  0  0  0  0  0  0  0  0
   21.6465  -23.6245   17.4525 C   0  0  0  0  0  0  0  0  0  0  0  0
   21.7955  -22.6575   17.4690 C   0  0  0  0  0  0  0  0  0  0  0  0
   21.6380  -22.8090   15.5630 C   0  0  0  0  0  0  0  0  0  0  0  0
   21.3690  -21.7900   14.6400 C   0  0  0  0  0  0  0  0  0  0  0  0
   20.8060  -20.5770   15.0660 C   0  0  0  0  0  0  0  0  0  0  0  0
   20.5170  -20.3820   16.4180 C   0  0  0  0  0  0  0  0  0  0  0  0
   20.7840  -21.3960   17.3440 C   0  0  0  0  0  0  0  0  0  0  0  0
   25.3219  -20.1285   18.9833 H   0  0  0  0  0  0  0  0  0  0  0  0
   24.7395  -19.3452   19.0354 H   0  0  0  0  0  0  0  0  0  0  0  0
   24.5515  -18.8595   19.9566 H   0  0  0  0  0  0  0  0  0  0  0  0
   21.0699  -21.3177   23.8162 H   0  0  0  0  0  0  0  0  0  0  0  0
   22.6305  -21.4011   24.6449 H   0  0  0  0  0  0  0  0  0  0  0  0
   21.5914  -19.2898   25.2114 H   0  0  0  0  0  0  0  0  0  0  0  0
   21.1637  -18.9734   23.5265 H   0  0  0  0  0  0  0  0  0  0  0  0
   22.2989  -17.1912   25.1229 H   0  0  0  0  0  0  0  0  0  0  0  0
   23.9961  -16.9060   24.6812 H   0  0  0  0  0  0  0  0  0  0  0  0
   22.7048  -16.7667   23.4669 H   0  0  0  0  0  0  0  0  0  0  0  0
   24.7773  -18.4431   22.8086 H   0  0  0  0  0  0  0  0  0  0  0  0
   23.2578  -18.4557   21.9477 H   0  0  0  0  0  0  0  0  0  0  0  0
   24.7118  -20.7926   23.2564 H   0  0  0  0  0  0  0  0  0  0  0  0
   24.4038  -20.5367   21.5303 H   0  0  0  0  0  0  0  0  0  0  0  0
   21.5923  -27.7880   18.9680 H   0  0  0  0  0  0  0  0  0  0  0  0
   19.9201  -27.2537   18.7404 H   0  0  0  0  0  0  0  0  0  0  0  0
   20.9823  -27.4278   17.3350 H   0  0  0  0  0  0  0  0  0  0  0  0
   21.8173  -23.8579   15.3499 H   0  0  0  0  0  0  0  0  0  0  0  0
   21.6019  -21.9342   13.5879 H   0  0  0  0  0  0  0  0  0  0  0  0
   20.6042  -19.7919   14.3468 H   0  0  0  0  0  0  0  0  0  0  0  0
   20.0854  -19.4443   16.7548 H   0  0  0  0  0  0  0  0  0  0  0  0
   20.1068  -21.3887   18.3208 H   0  0  0  0  0  0  0  0  0  0  0  0
  1  2  1  0
  2  3  1  0
  3  4  2  0
  3  5  1  0
  5  6  1  0
  6  7  2  0
  6  8  1  0
  8  9  1  0
  9 10  1  0
 10 11  1  0
 11 12  1  0
 11 13  1  0
 13 14  1  0
  5 15  1  0
 15 16  4  0
 16 17  4  0
 17 18  1  0
 17 19  4  0
 19 20  4  0
 20 21  1  0
 21 22  4  0
 22 23  4  0
 23 24  4  0
 24 25  4  0
 25 26  4  0
 14  8  1  0
 20 15  4  0
 26 21  4  0
  1 27  1  0
  1 28  1  0
  1 29  1  0
  9 30  1  0
  9 31  1  0
 10 32  1  0
 10 33  1  0
 12 34  1  0
 12 35  1  0
 12 36  1  0
 13 37  1  0
 13 38  1  0
 14 39  1  0
 14 40  1  0
 18 41  1  0
 18 42  1  0
 18 43  1  0
 22 44  1  0
 23 45  1  0
 24 46  1  0
 25 47  1  0
 26 48  1  0
M  END
