LIG
     RDKit          3D

 45 47  0  0  0  0  0  0  0  0999 V2000
   13.6250   -2.3810   24.3190 C   0  0  0  0  0  0  0  0  0  0  0  0
   13.1350   -1.0850   24.5660 O   0  0  0  0  0  0  0  0  0  0  0  0
   13.0110    0.1795   23.2200 C   0  0  0  0  0  0  0  0  0  0  0  0
   13.1945   -0.5485   22.4775 C   0  0  0  0  0  0  0  0  0  0  0  0
   13.2800   -1.3010   21.3800 C   0  0  0  0  0  0  0  0  0  0  0  0
   13.9850   -1.7380   20.5810 N   0  0  0  0  0  0  0  0  0  0  0  0
   11.2820   -1.3980   22.7460 C   0  0  0  0  0  0  0  0  0  0  0  0
   10.4420   -0.8190   23.6890 C   0  0  0  0  0  0  0  0  0  0  0  0
   11.0155    0.8340   24.2525 C   0  0  0  0  0  0  0  0  0  0  0  0
   10.2155    1.7510   24.7940 C   0  0  0  0  0  0  0  0  0  0  0  0
    8.4500    0.7150   24.9220 N   0  0  0  0  0  0  0  0  0  0  0  0
    7.7030    1.4680   24.0150 C   0  0  0  0  0  0  0  0  0  0  0  0
    8.1720    2.4660   23.4420 O   0  0  0  0  0  0  0  0  0  0  0  0
    6.3360    0.9640   23.8050 N   0  0  0  0  0  0  0  0  0  0  0  0
    5.6140    1.6470   22.6990 C   0  0  0  0  0  0  0  0  0  0  0  0
    4.2210    1.0320   22.4570 C   0  0  0  0  0  0  0  0  0  0  0  0
    3.4750    1.0690   23.6570 O   0  0  0  0  0  0  0  0  0  0  0  0
    4.0500    0.3480   24.7320 C   0  0  0  0  0  0  0  0  0  0  0  0
    5.4800    0.8530   25.0320 C   0  0  0  0  0  0  0  0  0  0  0  0
   11.1470    3.5810   23.7500 C   0  0  0  0  0  0  0  0  0  0  0  0
   10.2820    5.1680   23.8420 S   0  0  0  0  0  6  0  0  0  0  0  0
    8.8600    5.1380   22.8970 N   0  0  0  0  0  0  0  0  0  0  0  0
   11.1550    6.2720   23.4300 O   0  0  0  0  0  0  0  0  0  0  0  0
    9.9940    5.5050   25.2370 O   0  0  0  0  0  0  0  0  0  0  0  0
   12.3650    3.5080   23.0890 C   0  0  0  0  0  0  0  0  0  0  0  0
   13.0360    2.3020   23.0200 C   0  0  0  0  0  0  0  0  0  0  0  0
   12.2050    1.1310   23.7280 C   0  0  0  0  0  0  0  0  0  0  0  0
   14.0550   -2.4002   23.3091 H   0  0  0  0  0  0  0  0  0  0  0  0
   14.4227   -2.6595   25.0222 H   0  0  0  0  0  0  0  0  0  0  0  0
   14.7103   -2.3852   24.1406 H   0  0  0  0  0  0  0  0  0  0  0  0
   11.2842   -2.1510   22.0913 H   0  0  0  0  0  0  0  0  0  0  0  0
    9.6286   -1.1123   24.1027 H   0  0  0  0  0  0  0  0  0  0  0  0
    8.6788   -0.0561   24.9238 H   0  0  0  0  0  0  0  0  0  0  0  0
    5.5221    2.7007   22.9886 H   0  0  0  0  0  0  0  0  0  0  0  0
    6.2224    1.5965   21.7899 H   0  0  0  0  0  0  0  0  0  0  0  0
    4.3252    0.0032   22.1526 H   0  0  0  0  0  0  0  0  0  0  0  0
    3.6960    1.5897   21.7014 H   0  0  0  0  0  0  0  0  0  0  0  0
    3.4188    0.4627   25.6106 H   0  0  0  0  0  0  0  0  0  0  0  0
    4.0812   -0.7036   24.4618 H   0  0  0  0  0  0  0  0  0  0  0  0
    5.4330    1.8220   25.5457 H   0  0  0  0  0  0  0  0  0  0  0  0
    6.0002    0.1414   25.6892 H   0  0  0  0  0  0  0  0  0  0  0  0
    9.1337    5.0489   21.9194 H   0  0  0  0  0  0  0  0  0  0  0  0
    8.9187    5.8940   22.2165 H   0  0  0  0  0  0  0  0  0  0  0  0
   12.8148    4.3923   22.6433 H   0  0  0  0  0  0  0  0  0  0  0  0
   13.9207    2.1060   22.6291 H   0  0  0  0  0  0  0  0  0  0  0  0
  1  2  1  0
  2  3  1  0
  3  4  4  0
  4  5  1  0
  5  6  3  0
  4  7  4  0
  7  8  4  0
  8  9  4  0
  9 10  4  0
 10 11  1  0
 11 12  1  0
 12 13  2  0
 12 14  1  0
 14 15  1  0
 15 16  1  0
 16 17  1  0
 17 18  1  0
 18 19  1  0
 10 20  4  0
 20 21  1  0
 21 22  1  0
 21 23  2  0
 21 24  2  0
 20 25  4  0
 25 26  4  0
 26 27  4  0
 27  3  4  0
 27  9  4  0
 19 14  1  0
  1 28  1  0
  1 29  1  0
  1 30  1  0
  7 31  1  0
  8 32  1  0
 11 33  1  0
 15 34  1  0
 15 35  1  0
 16 36  1  0
 16 37  1  0
 18 38  1  0
 18 39  1  0
 19 40  1  0
 19 41  1  0
 22 42  1  0
 22 43  1  0
 25 44  1  0
 26 45  1  0
M  END
