LIG
     RDKit          3D

 23 23  0  0  0  0  0  0  0  0999 V2000
   13.6250   -2.3810   24.3190 C   0  0  0  0  0  0  0  0  0  0  0  0
   13.1350   -1.0850   24.5660 O   0  0  0  0  0  0  0  0  0  0  0  0
   13.2530   -0.1540   23.5250 C   0  0  0  0  0  0  0  0  0  0  0  0
   13.6065   -0.4925   22.6400 O   0  0  0  0  0  0  0  0  0  0  0  0
   12.4740    1.1520   23.3675 C   0  0  0  0  0  0  0  0  0  0  0  0
   11.2445    1.2200   24.0170 C   0  0  0  0  0  0  0  0  0  0  0  0
   10.6325    2.4610   24.1830 C   0  0  0  0  0  0  0  0  0  0  0  0
   11.2410    3.6215   23.7020 C   0  0  0  0  0  0  0  0  0  0  0  0
   10.4750    5.1765   23.8885 S   0  0  0  0  0  6  0  0  0  0  0  0
    9.1060    5.1565   22.9260 N   0  0  0  0  0  0  0  0  0  0  0  0
   11.3540    6.2340   23.4460 O   0  0  0  0  0  0  0  0  0  0  0  0
   10.0915    5.3770   25.2490 O   0  0  0  0  0  0  0  0  0  0  0  0
   12.4740    3.5200   23.0575 C   0  0  0  0  0  0  0  0  0  0  0  0
   13.0920    2.2935   22.8925 C   0  0  0  0  0  0  0  0  0  0  0  0
   12.8130   -3.1201   24.3410 H   0  0  0  0  0  0  0  0  0  0  0  0
   14.3396   -2.6405   25.1095 H   0  0  0  0  0  0  0  0  0  0  0  0
   14.1534   -2.4257   23.3572 H   0  0  0  0  0  0  0  0  0  0  0  0
   10.7511    0.3328   24.3930 H   0  0  0  0  0  0  0  0  0  0  0  0
    9.6657    2.5170   24.6954 H   0  0  0  0  0  0  0  0  0  0  0  0
    9.3605    5.3390   21.9539 H   0  0  0  0  0  0  0  0  0  0  0  0
    8.4110    5.8077   23.2949 H   0  0  0  0  0  0  0  0  0  0  0  0
   12.9661    4.4264   22.6719 H   0  0  0  0  0  0  0  0  0  0  0  0
   14.0546    2.2385   22.3882 H   0  0  0  0  0  0  0  0  0  0  0  0
  1  2  1  0
  2  3  1  0
  3  4  2  0
  3  5  1  0
  5  6  4  0
  6  7  4  0
  7  8  4  0
  8  9  1  0
  9 10  1  0
  9 11  2  0
  9 12  2  0
  8 13  4  0
 13 14  4  0
 14  5  4  0
  1 15  1  0
  1 16  1  0
  1 17  1  0
  6 18  1  0
  7 19  1  0
 10 20  1  0
 10 21  1  0
 13 22  1  0
 14 23  1  0
M  END
