LIG
     RDKit          3D

 53 56  0  0  0  0  0  0  0  0999 V2000
   13.6250   -2.3810   24.3190 C   0  0  0  0  0  0  0  0  0  0  0  0
   12.9530   -0.6190   24.6280 C   0  0  0  0  0  0  0  0  0  0  0  0
   13.4315   -0.5065   23.5770 C   0  0  0  0  0  0  0  0  0  0  0  0
   13.3840   -1.0415   22.6215 C   0  0  0  0  0  0  0  0  0  0  0  0
   11.5620   -1.0470   22.0960 C   0  0  0  0  0  0  0  0  0  0  0  0
   10.9230   -0.0800   23.0900 C   0  0  0  0  0  0  0  0  0  0  0  0
    9.4090   -0.1550   23.0330 C   0  0  0  0  0  0  0  0  0  0  0  0
    8.8650    0.3120   21.6960 C   0  0  0  0  0  0  0  0  0  0  0  0
    9.4190    1.1020   21.0000 O   0  0  0  0  0  0  0  0  0  0  0  0
    7.6120   -0.2560   21.3260 N   0  0  0  0  0  0  0  0  0  0  0  0
    7.0000    0.1710   20.1090 C   0  0  0  0  0  0  0  0  0  0  0  0
    5.7560    0.7730   20.2490 C   0  0  0  0  0  0  0  0  0  0  0  0
    5.1420    1.2080   19.0830 C   0  0  0  0  0  0  0  0  0  0  0  0
    5.8050    1.0240   17.8770 C   0  0  0  0  0  0  0  0  0  0  0  0
    7.0000    0.4540   17.8140 N   0  0  0  0  0  0  0  0  0  0  0  0
    7.6260    0.0260   18.8870 C   0  0  0  0  0  0  0  0  0  0  0  0
   11.2780    0.4180   24.3960 C   0  0  0  0  0  0  0  0  0  0  0  0
   10.5980    2.4480   24.3410 C   0  0  0  0  0  0  0  0  0  0  0  0
   11.1470    3.5810   23.7500 C   0  0  0  0  0  0  0  0  0  0  0  0
   10.2820    5.1680   23.8420 S   0  0  0  0  0  6  0  0  0  0  0  0
    8.8600    5.1380   22.8970 N   0  0  0  0  0  0  0  0  0  0  0  0
   11.1550    6.2720   23.4300 O   0  0  0  0  0  0  0  0  0  0  0  0
    9.9940    5.5050   25.2370 O   0  0  0  0  0  0  0  0  0  0  0  0
   12.3650    3.5080   23.0890 C   0  0  0  0  0  0  0  0  0  0  0  0
   13.0360    2.3020   23.0200 C   0  0  0  0  0  0  0  0  0  0  0  0
   12.4930    1.1680   23.6040 C   0  0  0  0  0  0  0  0  0  0  0  0
   14.2728   -2.4781   25.1313 H   0  0  0  0  0  0  0  0  0  0  0  0
   14.6403   -2.1673   24.1929 H   0  0  0  0  0  0  0  0  0  0  0  0
   14.0483   -2.3229   23.3868 H   0  0  0  0  0  0  0  0  0  0  0  0
   12.1499   -1.6205   23.1985 H   0  0  0  0  0  0  0  0  0  0  0  0
   14.6175    0.0738   23.7234 H   0  0  0  0  0  0  0  0  0  0  0  0
   13.5296   -2.1625   22.4774 H   0  0  0  0  0  0  0  0  0  0  0  0
   13.7558   -0.6451   21.6171 H   0  0  0  0  0  0  0  0  0  0  0  0
   11.3412   -2.0364   22.1363 H   0  0  0  0  0  0  0  0  0  0  0  0
   11.6766   -0.6440   21.1517 H   0  0  0  0  0  0  0  0  0  0  0  0
   10.9928    1.0089   22.3896 H   0  0  0  0  0  0  0  0  0  0  0  0
    9.0572   -1.1795   23.1949 H   0  0  0  0  0  0  0  0  0  0  0  0
    8.9532    0.4762   23.8019 H   0  0  0  0  0  0  0  0  0  0  0  0
    7.1959   -0.8951   21.8788 H   0  0  0  0  0  0  0  0  0  0  0  0
    5.2698    0.9089   21.1857 H   0  0  0  0  0  0  0  0  0  0  0  0
    4.1668    1.6810   19.1072 H   0  0  0  0  0  0  0  0  0  0  0  0
    5.3662    1.3409   16.9452 H   0  0  0  0  0  0  0  0  0  0  0  0
    8.5733   -0.4056   18.7607 H   0  0  0  0  0  0  0  0  0  0  0  0
    9.4822    2.1389   24.0611 H   0  0  0  0  0  0  0  0  0  0  0  0
   10.3913    2.4925   25.5073 H   0  0  0  0  0  0  0  0  0  0  0  0
   10.4472    3.2885   22.5038 H   0  0  0  0  0  0  0  0  0  0  0  0
    9.0174    5.6642   22.0416 H   0  0  0  0  0  0  0  0  0  0  0  0
    8.5765    4.1735   22.7491 H   0  0  0  0  0  0  0  0  0  0  0  0
   13.1095    4.3090   23.4699 H   0  0  0  0  0  0  0  0  0  0  0  0
   12.2177    3.9170   22.0186 H   0  0  0  0  0  0  0  0  0  0  0  0
   14.1409    2.4766   23.3777 H   0  0  0  0  0  0  0  0  0  0  0  0
   13.3074    2.0693   21.8965 H   0  0  0  0  0  0  0  0  0  0  0  0
   12.0299    0.7669   22.2332 H   0  0  0  0  0  0  0  0  0  0  0  0
  1  2  1  0
  2  3  1  0
  3  4  1  0
  4  5  1  0
  5  6  1  0
  6  7  1  0
  7  8  1  0
  8  9  2  0
  8 10  1  0
 10 11  1  0
 11 12  4  0
 12 13  4  0
 13 14  4  0
 14 15  4  0
 15 16  4  0
  6 17  1  0
 17 18  1  0
 18 19  1  0
 19 20  1  0
 20 21  1  0
 20 22  2  0
 20 23  2  0
 19 24  1  0
 24 25  1  0
 25 26  1  0
 17  2  1  0
 26  3  1  0
 16 11  4  0
 26 17  1  0
  1 27  1  0
  1 28  1  0
  1 29  1  0
  2 30  1  0
  3 31  1  0
  4 32  1  0
  4 33  1  0
  5 34  1  0
  5 35  1  0
  6 36  1  0
  7 37  1  0
  7 38  1  0
 10 39  1  0
 12 40  1  0
 13 41  1  0
 14 42  1  0
 16 43  1  0
 18 44  1  0
 18 45  1  0
 19 46  1  0
 21 47  1  0
 21 48  1  0
 24 49  1  0
 24 50  1  0
 25 51  1  0
 25 52  1  0
 26 53  1  0
M  END
