
     RDKit          3D

 40 41  0  0  0  0  0  0  0  0999 V2000
   13.4100   -2.2910   24.2560 C   0  0  0  0  0  0  0  0  0  0  0  0
   12.6480   -1.0840   24.1390 O   0  0  0  0  0  0  0  0  0  0  0  0
   12.9760   -0.3510   23.0070 C   0  0  0  0  0  0  0  0  0  0  0  0
   12.7810   -1.4870   22.2730 O   0  0  0  0  0  0  0  0  0  0  0  0
   11.4240   -1.8590   22.4480 C   0  0  0  0  0  0  0  0  0  0  0  0
   10.3570   -0.8380   22.9580 C   0  0  0  0  0  0  0  0  0  0  0  0
    8.9540   -1.4660   23.0270 C   0  0  0  0  0  0  0  0  0  0  0  0
    8.7060   -2.8750   23.1630 C   0  0  0  0  0  0  0  0  0  0  0  0
    7.4150   -3.2060   23.8810 N   0  0  0  0  0  0  0  0  0  0  0  0
    7.3880   -4.3450   25.2000 S   0  0  1  0  0  0  0  0  0  0  0  0
    5.9820   -5.3640   24.9000 C   0  0  0  0  0  0  0  0  0  0  0  0
    8.6050   -5.1370   25.1300 O   0  0  0  0  0  0  0  0  0  0  0  0
    7.0180   -3.5900   26.3710 O   0  0  0  0  0  0  0  0  0  0  0  0
   10.8010    0.5740   23.1520 C   0  0  0  0  0  0  0  0  0  0  0  0
    9.9550    1.8500   23.4140 C   0  0  0  0  0  0  0  0  0  0  0  0
   10.7150    3.2290   23.4020 C   0  0  0  0  0  0  0  0  0  0  0  0
    9.9620    4.8560   23.6480 S   0  0  2  0  0  0  0  0  0  0  0  0
    8.7230    4.8660   22.5310 N   0  0  0  0  0  0  0  0  0  0  0  0
   10.9210    5.8480   23.2140 O   0  0  0  0  0  0  0  0  0  0  0  0
    9.2960    4.9880   24.9330 O   0  0  0  0  0  0  0  0  0  0  0  0
   12.0740    3.2440   23.1670 C   0  0  0  0  0  0  0  0  0  0  0  0
   12.7380    2.0450   23.0100 C   0  0  0  0  0  0  0  0  0  0  0  0
   12.1920    0.7900   23.0390 C   0  0  0  0  0  0  0  0  0  0  0  0
   12.7040   -3.1140   24.3760 H   0  0  0  0  0  0  0  0  0  0  0  0
   14.0530   -2.2740   25.1400 H   0  0  0  0  0  0  0  0  0  0  0  0
   14.0130   -2.4770   23.3670 H   0  0  0  0  0  0  0  0  0  0  0  0
   11.1320   -2.8630   22.1660 H   0  0  0  0  0  0  0  0  0  0  0  0
    8.4530   -0.9840   23.8660 H   0  0  0  0  0  0  0  0  0  0  0  0
    8.4850   -0.9930   22.1700 H   0  0  0  0  0  0  0  0  0  0  0  0
    8.6180   -3.2700   22.1460 H   0  0  0  0  0  0  0  0  0  0  0  0
    9.5440   -3.3880   23.6300 H   0  0  0  0  0  0  0  0  0  0  0  0
    6.9160   -2.3700   24.2030 H   0  0  0  0  0  0  0  0  0  0  0  0
    6.1870   -6.0000   24.0370 H   0  0  0  0  0  0  0  0  0  0  0  0
    5.7830   -5.9570   25.7950 H   0  0  0  0  0  0  0  0  0  0  0  0
    5.1320   -4.7120   24.6890 H   0  0  0  0  0  0  0  0  0  0  0  0
    8.8740    1.8340   23.5640 H   0  0  0  0  0  0  0  0  0  0  0  0
    9.1130    4.9620   21.5850 H   0  0  0  0  0  0  0  0  0  0  0  0
    8.1560    4.0190   22.6260 H   0  0  0  0  0  0  0  0  0  0  0  0
   12.6270    4.1860   23.1260 H   0  0  0  0  0  0  0  0  0  0  0  0
   13.8120    1.9970   22.8620 H   0  0  0  0  0  0  0  0  0  0  0  0
  1  2  1  0
  2  3  1  0
  3  4  2  0
  4  5  1  0
  5  6  2  0
  6  7  1  0
  7  8  1  0
  8  9  1  0
 10  9  1  6
 10 11  1  0
 10 12  2  0
 10 13  2  0
  6 14  1  0
 14 15  1  0
 15 16  2  0
 16 17  1  0
 17 18  1  6
 17 19  2  0
 17 20  2  0
 16 21  1  0
 21 22  2  0
  3 23  1  0
 14 23  2  0
 22 23  1  0
  1 24  1  0
  1 25  1  0
  1 26  1  0
  5 27  1  0
  7 28  1  0
  7 29  1  0
  8 30  1  0
  8 31  1  0
  9 32  1  0
 11 33  1  0
 11 34  1  0
 11 35  1  0
 15 36  1  0
 18 37  1  0
 18 38  1  0
 21 39  1  0
 22 40  1  0
M  CHG  1   4   1
M  END
