LIG
     RDKit          3D

 41 44  0  0  0  0  0  0  0  0999 V2000
   23.7440  -16.4960   26.0400 N   0  0  0  0  0  0  0  0  0  0  0  0
   24.5410  -17.6230   25.5720 C   0  0  0  0  0  0  0  0  0  0  0  0
   25.6280  -17.7580   26.0160 O   0  0  0  0  0  0  0  0  0  0  0  0
   23.5450  -18.0500   24.4430 C   0  0  0  0  0  0  0  0  0  0  0  0
   24.2845  -18.8065   23.0450 C   0  0  0  0  0  0  0  0  0  0  0  0
   24.1855  -20.1650   22.5020 C   0  0  0  0  0  0  0  0  0  0  0  0
   22.8735  -20.8150   22.6265 N   0  0  0  0  0  4  0  0  0  0  0  0
   22.3085  -21.8110   21.7290 C   0  0  0  0  0  0  0  0  0  0  0  0
   21.2395  -22.2635   21.9525 O   0  0  0  0  0  0  0  0  0  0  0  0
   23.0105  -22.2445   20.5595 N   0  0  0  0  0  0  0  0  0  0  0  0
   22.5140  -23.2840   20.0050 C   0  0  0  0  0  0  0  0  0  0  0  0
   22.1285  -24.4020   20.7939 C   0  0  0  0  0  0  0  0  0  0  0  0
   21.6291  -25.6813   20.1009 C   0  0  0  0  0  0  0  0  0  0  0  0
   22.0880  -25.7590   18.6616 C   0  0  0  0  0  0  0  0  0  0  0  0
   22.2550  -22.7050   18.0200 C   0  0  0  0  0  0  0  0  0  0  0  0
   21.7640  -23.5450   17.0280 C   0  0  0  0  0  0  0  0  0  0  0  0
   21.6345  -24.4855   17.5990 C   0  0  0  0  0  0  0  0  0  0  0  0
   22.4000  -23.1410   18.9815 C   0  0  0  0  0  0  0  0  0  0  0  0
   22.0860  -20.8710   23.8350 C   0  0  0  0  0  0  0  0  0  0  0  0
   22.0690  -19.6380   23.9610 C   0  0  0  0  0  0  0  0  0  0  0  0
   22.8905  -18.5950   24.1300 C   0  0  0  0  0  0  0  0  0  0  0  0
   22.8072  -16.7328   26.2770 H   0  0  0  0  0  0  0  0  0  0  0  0
   23.9670  -15.5770   25.7573 H   0  0  0  0  0  0  0  0  0  0  0  0
   23.4743  -16.9555   23.7874 H   0  0  0  0  0  0  0  0  0  0  0  0
   25.4081  -18.5095   23.1648 H   0  0  0  0  0  0  0  0  0  0  0  0
   24.0356  -18.0248   22.2153 H   0  0  0  0  0  0  0  0  0  0  0  0
   24.4177  -20.1693   21.4143 H   0  0  0  0  0  0  0  0  0  0  0  0
   24.9292  -20.8439   22.9749 H   0  0  0  0  0  0  0  0  0  0  0  0
   23.7906  -21.8084   20.3228 H   0  0  0  0  0  0  0  0  0  0  0  0
   22.1823  -24.4937   21.8749 H   0  0  0  0  0  0  0  0  0  0  0  0
   22.0565  -26.5367   20.6375 H   0  0  0  0  0  0  0  0  0  0  0  0
   20.5389  -25.7516   20.1682 H   0  0  0  0  0  0  0  0  0  0  0  0
   22.2739  -26.7198   18.1954 H   0  0  0  0  0  0  0  0  0  0  0  0
   21.4323  -23.1560   15.9243 H   0  0  0  0  0  0  0  0  0  0  0  0
   21.5980  -25.4358   17.9289 H   0  0  0  0  0  0  0  0  0  0  0  0
   23.7138  -23.7886   18.5981 H   0  0  0  0  0  0  0  0  0  0  0  0
   22.5404  -21.6745   24.6860 H   0  0  0  0  0  0  0  0  0  0  0  0
   21.0171  -21.5069   23.7391 H   0  0  0  0  0  0  0  0  0  0  0  0
   21.1339  -19.2305   23.2980 H   0  0  0  0  0  0  0  0  0  0  0  0
   22.9926  -18.4455   22.7420 H   0  0  0  0  0  0  0  0  0  0  0  0
   21.8300  -17.6989   23.8195 H   0  0  0  0  0  0  0  0  0  0  0  0
  1  2  1  0
  2  3  2  0
  2  4  1  0
  4  5  1  0
  5  6  1  0
  6  7  1  0
  7  8  1  0
  8  9  2  0
  8 10  1  0
 10 11  1  0
 11 12  2  0
 12 13  1  0
 13 14  1  0
 14 15  2  0
 15 16  1  0
 16 17  2  0
 17 18  1  0
  7 19  1  0
 19 20  1  0
 20 21  1  0
 21  4  1  0
 20  7  1  0
 18 11  1  0
 18 15  1  0
  1 22  1  0
  1 23  1  0
  4 24  1  0
  5 25  1  0
  5 26  1  0
  6 27  1  0
  6 28  1  0
 10 29  1  0
 12 30  1  0
 13 31  1  0
 13 32  1  0
 14 33  1  0
 16 34  1  0
 17 35  1  0
 18 36  1  0
 19 37  1  0
 19 38  1  0
 20 39  1  0
 21 40  1  0
 21 41  1  0
M  CHG  1   7   1
M  END
