
     RDKit          3D

 50 53  0  0  0  0  0  0  0  0999 V2000
   13.4360   -2.5070   24.1520 C   0  0  0  0  0  0  0  0  0  0  0  0
   12.8590   -1.1300   23.9980 C   0  0  0  0  0  0  0  0  0  0  0  0
   12.3750   -0.7930   22.7620 N   0  0  1  0  0  0  0  0  0  0  0  0
   13.3800   -0.8810   21.8340 O   0  0  0  0  0  0  0  0  0  0  0  0
   11.2670   -1.6190   22.3330 C   0  0  0  0  0  0  0  0  0  0  0  0
    9.9820   -1.3060   23.1050 C   0  0  0  0  0  0  0  0  0  0  0  0
    9.4510    0.0410   22.8160 N   0  0  0  0  0  0  0  0  0  0  0  0
    8.6090    0.1580   21.6350 C   0  0  0  0  0  0  0  0  0  0  0  0
    8.5250    1.2410   21.0110 O   0  0  0  0  0  0  0  0  0  0  0  0
    7.9430   -0.9740   21.2390 C   0  0  0  0  0  0  0  0  0  0  0  0
    7.1540   -0.4520   20.0640 C   0  0  0  0  0  0  0  0  0  0  0  0
    7.3410   -0.6000   18.7150 C   0  0  0  0  0  0  0  0  0  0  0  0
    6.4110    0.0510   18.0150 N   0  0  0  0  0  0  0  0  0  0  0  0
    5.5590    0.6510   18.9110 C   0  0  0  0  0  0  0  0  0  0  0  0
    4.4900    1.3990   18.5020 N   0  0  0  0  0  0  0  0  0  0  0  0
    3.6630    1.9740   19.4940 C   0  0  0  0  0  0  0  0  0  0  0  0
    3.9950    1.7420   20.8360 C   0  0  0  0  0  0  0  0  0  0  0  0
    5.1100    0.9700   21.1780 C   0  0  0  0  0  0  0  0  0  0  0  0
    5.9340    0.3950   20.2340 C   0  0  0  0  0  0  0  0  0  0  0  0
   10.4070    1.0520   22.9500 C   0  0  0  0  0  0  0  0  0  0  0  0
   10.0020    2.3980   23.1340 C   0  0  0  0  0  0  0  0  0  0  0  0
   11.1110    3.4100   23.2260 C   0  0  0  0  0  0  0  0  0  0  0  0
   10.5350    5.1140   23.5210 S   0  0  2  0  0  0  0  0  0  0  0  0
    9.0760    5.1680   22.6930 N   0  0  0  0  0  0  0  0  0  0  0  0
   11.4000    6.0850   22.8950 O   0  0  0  0  0  0  0  0  0  0  0  0
   10.1650    5.2480   24.9170 O   0  0  0  0  0  0  0  0  0  0  0  0
   12.4500    3.0960   23.1130 C   0  0  0  0  0  0  0  0  0  0  0  0
   12.8550    1.7490   22.9510 C   0  0  0  0  0  0  0  0  0  0  0  0
   11.9220    0.6900   22.8840 C   0  0  0  0  0  0  0  0  0  0  0  0
   14.1590   -2.5500   24.9700 H   0  0  0  0  0  0  0  0  0  0  0  0
   13.9400   -2.7950   23.2260 H   0  0  0  0  0  0  0  0  0  0  0  0
   12.6210   -3.2040   24.3650 H   0  0  0  0  0  0  0  0  0  0  0  0
   13.6110   -0.4100   24.2930 H   0  0  0  0  0  0  0  0  0  0  0  0
   12.0290   -1.0630   24.7020 H   0  0  0  0  0  0  0  0  0  0  0  0
   11.5610   -2.6690   22.4410 H   0  0  0  0  0  0  0  0  0  0  0  0
   11.0970   -1.4650   21.2630 H   0  0  0  0  0  0  0  0  0  0  0  0
   10.1580   -1.4220   24.1820 H   0  0  0  0  0  0  0  0  0  0  0  0
    9.2220   -2.0580   22.8570 H   0  0  0  0  0  0  0  0  0  0  0  0
    7.3970   -1.5020   22.0180 H   0  0  0  0  0  0  0  0  0  0  0  0
    8.6810   -1.6910   20.8610 H   0  0  0  0  0  0  0  0  0  0  0  0
    8.1460   -1.1680   18.2660 H   0  0  0  0  0  0  0  0  0  0  0  0
    6.3530    0.0900   17.0060 H   0  0  0  0  0  0  0  0  0  0  0  0
    2.8050    2.5690   19.1620 H   0  0  0  0  0  0  0  0  0  0  0  0
    3.4330    2.1290   21.6880 H   0  0  0  0  0  0  0  0  0  0  0  0
    5.3330    0.8150   22.2390 H   0  0  0  0  0  0  0  0  0  0  0  0
    8.9240    2.5900   23.1960 H   0  0  0  0  0  0  0  0  0  0  0  0
    8.5540    5.9960   22.9770 H   0  0  0  0  0  0  0  0  0  0  0  0
    9.2740    5.1420   21.6850 H   0  0  0  0  0  0  0  0  0  0  0  0
   13.2110    3.8710   23.1660 H   0  0  0  0  0  0  0  0  0  0  0  0
   13.9110    1.5200   22.8830 H   0  0  0  0  0  0  0  0  0  0  0  0
  1  2  1  0
  2  3  1  0
  3  4  1  6
  3  5  1  0
  5  6  1  0
  6  7  1  0
  7  8  1  0
  8  9  2  0
  8 10  1  0
 10 11  1  0
 11 12  2  0
 12 13  1  0
 13 14  1  0
 14 15  1  0
 15 16  2  0
 16 17  1  0
 17 18  2  0
 11 19  1  0
 14 19  2  0
 18 19  1  0
  7 20  1  0
 20 21  1  0
 21 22  2  0
 22 23  1  0
 23 24  1  6
 23 25  2  0
 23 26  2  0
 22 27  1  0
 27 28  2  0
  3 29  1  0
 20 29  2  0
 28 29  1  0
  1 30  1  0
  1 31  1  0
  1 32  1  0
  2 33  1  0
  2 34  1  0
  5 35  1  0
  5 36  1  0
  6 37  1  0
  6 38  1  0
 10 39  1  0
 10 40  1  0
 12 41  1  0
 13 42  1  0
 16 43  1  0
 17 44  1  0
 18 45  1  0
 21 46  1  0
 24 47  1  0
 24 48  1  0
 27 49  1  0
 28 50  1  0
M  CHG  2   3   1   4  -1
M  END
