
     RDKit          3D

 41 44  0  0  0  0  0  0  0  0999 V2000
   13.3610   -2.6650   24.1560 C   0  0  0  0  0  0  0  0  0  0  0  0
   13.0570   -1.3590   24.6000 O   0  0  0  0  0  0  0  0  0  0  0  0
   13.1800   -0.4200   23.6030 C   0  0  0  0  0  0  0  0  0  0  0  0
   12.8770   -0.8440   22.3150 O   0  0  0  0  0  0  0  0  0  0  0  0
   11.5450   -1.0380   22.4660 C   0  0  0  0  0  0  0  0  0  0  0  0
   11.0660   -0.0520   23.5260 C   0  0  0  0  0  0  0  0  0  0  0  0
    9.5690    0.0470   23.7970 C   0  0  2  0  0  0  0  0  0  0  0  0
    8.7290   -0.9790   23.3650 C   0  0  0  0  0  0  0  0  0  0  0  0
    7.3100   -0.4400   23.2220 C   0  0  0  0  0  0  0  0  0  0  0  0
    7.4320    0.9580   23.3100 C   0  0  0  0  0  0  0  0  0  0  0  0
    8.8600    1.3180   23.5750 C   0  0  2  0  0  0  0  0  0  0  0  0
    9.3010    2.3650   22.4530 C   0  0  0  0  0  0  0  0  0  0  0  0
    8.5990    2.2310   21.2090 O   0  0  0  0  0  0  0  0  0  0  0  0
   10.3800    3.2460   22.7150 C   0  0  2  0  0  0  0  0  0  0  0  0
   10.0820    4.7730   23.5270 S   0  0  1  0  0  0  0  0  0  0  0  0
    8.9380    5.5330   22.5700 N   0  0  0  0  0  0  0  0  0  0  0  0
    9.3820    4.6320   24.7740 O   0  0  0  0  0  0  0  0  0  0  0  0
   11.2390    5.6340   23.4070 O   0  0  0  0  0  0  0  0  0  0  0  0
   10.9260    2.3090   23.4780 C   0  0  0  0  0  0  0  0  0  0  0  0
   12.3050    1.7840   23.2800 C   0  0  0  0  0  0  0  0  0  0  0  0
   12.2610    0.8100   24.0890 C   0  0  1  0  0  0  0  0  0  0  0  0
   11.2750    1.6310   23.7660 C   0  0  0  0  0  0  0  0  0  0  0  0
   11.5940    2.8520   22.7520 C   0  0  0  0  0  0  0  0  0  0  0  0
   13.8480   -3.1910   24.9820 H   0  0  0  0  0  0  0  0  0  0  0  0
   12.4480   -3.2070   23.8970 H   0  0  0  0  0  0  0  0  0  0  0  0
   14.0350   -2.6500   23.2980 H   0  0  0  0  0  0  0  0  0  0  0  0
   10.9550   -1.7440   21.8860 H   0  0  0  0  0  0  0  0  0  0  0  0
    9.5280   -0.0660   24.8900 H   0  0  0  0  0  0  0  0  0  0  0  0
    9.0810   -1.3950   22.4110 H   0  0  0  0  0  0  0  0  0  0  0  0
    8.7320   -1.7950   24.0990 H   0  0  0  0  0  0  0  0  0  0  0  0
    6.6670   -0.9580   23.9300 H   0  0  0  0  0  0  0  0  0  0  0  0
    6.9440   -0.6880   22.2210 H   0  0  0  0  0  0  0  0  0  0  0  0
    6.7660    1.3070   24.0980 H   0  0  0  0  0  0  0  0  0  0  0  0
    7.0520    1.4830   22.4360 H   0  0  0  0  0  0  0  0  0  0  0  0
    8.7820    1.9520   24.4680 H   0  0  0  0  0  0  0  0  0  0  0  0
    8.0160    5.1580   22.7500 H   0  0  0  0  0  0  0  0  0  0  0  0
    9.2110    5.4540   21.5860 H   0  0  0  0  0  0  0  0  0  0  0  0
   10.3230    1.8400   24.2570 H   0  0  0  0  0  0  0  0  0  0  0  0
   13.1410    2.0120   22.6240 H   0  0  0  0  0  0  0  0  0  0  0  0
   10.3050    1.3930   24.2090 H   0  0  0  0  0  0  0  0  0  0  0  0
   12.5320    3.1400   22.2860 H   0  0  0  0  0  0  0  0  0  0  0  0
  1  2  1  0
  2  3  1  0
  3  4  2  0
  4  5  1  0
  5  6  2  0
  6  7  1  0
  7  8  1  0
  8  9  1  0
  9 10  1  0
  7 11  1  0
 10 11  1  0
 11 12  1  0
 12 13  2  0
 14 12  1  6
 14 15  1  0
 15 16  1  6
 15 17  2  0
 15 18  2  0
 14 19  1  0
 19 20  2  0
 21  3  1  1
  6 21  1  0
 20 21  1  0
 21 22  1  0
 14 23  1  0
 22 23  2  0
  1 24  1  0
  1 25  1  0
  1 26  1  0
  5 27  1  0
  7 28  1  1
  8 29  1  0
  8 30  1  0
  9 31  1  0
  9 32  1  0
 10 33  1  0
 10 34  1  0
 11 35  1  1
 16 36  1  0
 16 37  1  0
 19 38  1  0
 20 39  1  0
 22 40  1  0
 23 41  1  0
M  CHG  1   4   1
M  END
