
     RDKit          3D

 53 56  0  0  0  0  0  0  0  0999 V2000
   12.3530   -0.8050   25.3830 C   0  0  0  0  0  0  0  0  0  0  0  0
   11.8570   -0.6630   24.0840 C   0  0  2  0  0  0  0  0  0  0  0  0
   12.8510   -0.6060   23.1500 C   0  0  1  0  0  0  0  0  0  0  0  0
   12.5080   -1.6230   22.1110 C   0  0  0  0  0  0  0  0  0  0  0  0
   11.0010   -1.6070   22.1410 C   0  0  0  0  0  0  0  0  0  0  0  0
   10.3270   -0.3750   22.2690 C   0  0  1  0  0  0  0  0  0  0  0  0
    8.9390   -0.6250   22.7150 C   0  0  0  0  0  0  0  0  0  0  0  0
    8.2850    0.1240   21.7300 C   0  0  0  0  0  0  0  0  0  0  0  0
    8.9080    1.3570   21.3380 O   0  0  0  0  0  0  0  0  0  0  0  0
    7.1340   -0.4350   21.2530 N   0  0  0  0  0  0  0  0  0  0  0  0
    6.4770    0.1370   20.1810 C   0  0  0  0  0  0  0  0  0  0  0  0
    5.2180    0.9810   20.2580 C   0  0  0  0  0  0  0  0  0  0  0  0
    4.6990    1.4920   19.0980 C   0  0  0  0  0  0  0  0  0  0  0  0
    5.3360    1.2270   17.9000 C   0  0  0  0  0  0  0  0  0  0  0  0
    6.4500    0.4860   17.7600 N   0  0  0  0  0  0  0  0  0  0  0  0
    7.0030   -0.0540   18.9090 C   0  0  0  0  0  0  0  0  0  0  0  0
   11.0590    0.4900   23.3200 C   0  0  1  0  0  0  0  0  0  0  0  0
   10.3270    1.6670   23.8350 C   0  0  0  0  0  0  0  0  0  0  0  0
   10.7640    2.9530   23.0380 C   0  0  1  0  0  0  0  0  0  0  0  0
   10.1050    4.5520   23.6970 S   0  0  2  0  0  0  0  0  0  0  0  0
    8.9170    4.9710   22.5980 N   0  0  0  0  0  0  0  0  0  0  0  0
   11.1240    5.5790   23.5960 O   0  0  0  0  0  0  0  0  0  0  0  0
    9.3180    4.4260   24.8930 O   0  0  0  0  0  0  0  0  0  0  0  0
   12.1130    3.1100   22.7700 C   0  0  0  0  0  0  0  0  0  0  0  0
   12.8730    1.9990   23.1150 C   0  0  0  0  0  0  0  0  0  0  0  0
   12.4010    0.8170   22.7350 C   0  0  1  0  0  0  0  0  0  0  0  0
   11.5980   -0.4010   26.0370 H   0  0  0  0  0  0  0  0  0  0  0  0
   13.2670   -0.2680   25.4880 H   0  0  0  0  0  0  0  0  0  0  0  0
   12.5150   -1.8680   25.5730 H   0  0  0  0  0  0  0  0  0  0  0  0
   11.3330   -1.6080   23.9230 H   0  0  0  0  0  0  0  0  0  0  0  0
   13.8530   -0.7270   23.5580 H   0  0  0  0  0  0  0  0  0  0  0  0
   12.9140   -2.6070   22.3590 H   0  0  0  0  0  0  0  0  0  0  0  0
   12.9160   -1.3550   21.1320 H   0  0  0  0  0  0  0  0  0  0  0  0
   10.5970   -2.3970   22.7700 H   0  0  0  0  0  0  0  0  0  0  0  0
   10.7060   -1.9580   21.1600 H   0  0  0  0  0  0  0  0  0  0  0  0
   10.3640    0.2310   21.4030 H   0  0  0  0  0  0  0  0  0  0  0  0
    8.6040   -1.6530   22.8480 H   0  0  0  0  0  0  0  0  0  0  0  0
    8.7890   -0.0970   23.6610 H   0  0  0  0  0  0  0  0  0  0  0  0
    6.5580   -0.9330   21.9190 H   0  0  0  0  0  0  0  0  0  0  0  0
    4.7990    1.1280   21.2620 H   0  0  0  0  0  0  0  0  0  0  0  0
    3.8020    2.1100   19.0200 H   0  0  0  0  0  0  0  0  0  0  0  0
    4.8550    1.6820   17.0310 H   0  0  0  0  0  0  0  0  0  0  0  0
    7.9000   -0.6510   18.7400 H   0  0  0  0  0  0  0  0  0  0  0  0
    9.2490    1.7170   23.8960 H   0  0  0  0  0  0  0  0  0  0  0  0
   10.5950    1.7970   24.8670 H   0  0  0  0  0  0  0  0  0  0  0  0
   10.2590    2.8990   22.0670 H   0  0  0  0  0  0  0  0  0  0  0  0
    9.3110    5.0390   21.6540 H   0  0  0  0  0  0  0  0  0  0  0  0
    8.1420    4.3240   22.6570 H   0  0  0  0  0  0  0  0  0  0  0  0
   12.4530    3.9160   23.4300 H   0  0  0  0  0  0  0  0  0  0  0  0
   12.3140    3.5300   21.7910 H   0  0  0  0  0  0  0  0  0  0  0  0
   12.9860    1.7770   24.1220 H   0  0  0  0  0  0  0  0  0  0  0  0
   13.8720    2.1390   22.7240 H   0  0  0  0  0  0  0  0  0  0  0  0
   12.4400    0.9190   21.7360 H   0  0  0  0  0  0  0  0  0  0  0  0
  1  2  1  0
  2  3  1  0
  3  4  1  0
  4  5  1  0
  5  6  1  0
  6  7  1  0
  7  8  1  0
  8  9  2  0
  8 10  1  0
 10 11  1  0
 11 12  2  0
 12 13  1  0
 13 14  2  0
 14 15  1  0
 11 16  1  0
 15 16  2  0
  2 17  1  0
  6 17  1  0
 17 18  1  1
 18 19  1  0
 19 20  1  0
 20 21  1  6
 20 22  2  0
 20 23  2  0
 19 24  1  0
 24 25  1  0
  3 26  1  0
 17 26  1  0
 25 26  1  0
  1 27  1  0
  1 28  1  0
  1 29  1  0
  2 30  1  6
  3 31  1  1
  4 32  1  0
  4 33  1  0
  5 34  1  0
  5 35  1  0
  6 36  1  6
  7 37  1  0
  7 38  1  0
 10 39  1  0
 12 40  1  0
 13 41  1  0
 14 42  1  0
 16 43  1  0
 18 44  1  0
 18 45  1  0
 19 46  1  6
 21 47  1  0
 21 48  1  0
 24 49  1  0
 24 50  1  0
 25 51  1  0
 25 52  1  0
 26 53  1  6
M  END
