
     RDKit          3D

 41 44  0  0  0  0  0  0  0  0999 V2000
   23.9680  -16.6630   25.9380 N   0  0  0  0  0  0  0  0  0  0  0  0
   24.2310  -17.4500   25.1290 C   0  0  0  0  0  0  0  0  0  0  0  0
   25.5010  -17.9360   25.5540 O   0  0  0  0  0  0  0  0  0  0  0  0
   24.0990  -18.3010   23.8860 C   0  0  1  0  0  0  0  0  0  0  0  0
   25.0610  -19.2730   23.5810 C   0  0  0  0  0  0  0  0  0  0  0  0
   24.5580  -20.2650   22.5170 C   0  0  0  0  0  0  0  0  0  0  0  0
   23.4890  -21.1400   23.0200 N   0  0  1  0  0  0  0  0  0  0  0  0
   22.8450  -22.0780   22.0630 C   0  0  0  0  0  0  0  0  0  0  0  0
   21.7030  -22.5280   22.3140 O   0  0  0  0  0  0  0  0  0  0  0  0
   23.6400  -22.3970   20.8570 N   0  0  0  0  0  0  0  0  0  0  0  0
   23.0430  -23.4360   20.0090 C   0  0  0  0  0  0  0  0  0  0  0  0
   22.3130  -24.5740   20.4570 C   0  0  0  0  0  0  0  0  0  0  0  0
   22.0380  -25.1380   19.1870 C   0  0  0  0  0  0  0  0  0  0  0  0
   21.7420  -23.9710   18.1440 C   0  0  0  0  0  0  0  0  0  0  0  0
   22.5210  -22.6200   17.6650 C   0  0  0  0  0  0  0  0  0  0  0  0
   21.4060  -22.9790   17.1760 C   0  0  0  0  0  0  0  0  0  0  0  0
   21.7120  -24.0880   17.8940 C   0  0  0  0  0  0  0  0  0  0  0  0
   23.0100  -23.6890   18.5390 C   0  0  2  0  0  0  0  0  0  0  0  0
   23.4180  -21.2200   24.4110 C   0  0  0  0  0  0  0  0  0  0  0  0
   22.4590  -20.4010   23.7700 C   0  0  1  0  0  0  0  0  0  0  0  0
   22.6930  -18.8810   23.9330 C   0  0  0  0  0  0  0  0  0  0  0  0
   23.1000  -16.9310   26.4060 H   0  0  0  0  0  0  0  0  0  0  0  0
   24.0360  -15.6640   25.7500 H   0  0  0  0  0  0  0  0  0  0  0  0
   24.0940  -17.6220   23.0280 H   0  0  0  0  0  0  0  0  0  0  0  0
   25.5330  -19.7510   24.4330 H   0  0  0  0  0  0  0  0  0  0  0  0
   25.9060  -18.7520   23.1150 H   0  0  0  0  0  0  0  0  0  0  0  0
   24.2070  -19.7060   21.6440 H   0  0  0  0  0  0  0  0  0  0  0  0
   25.4250  -20.8290   22.1490 H   0  0  0  0  0  0  0  0  0  0  0  0
   24.6370  -22.4940   20.9740 H   0  0  0  0  0  0  0  0  0  0  0  0
   22.0440  -24.9040   21.4630 H   0  0  0  0  0  0  0  0  0  0  0  0
   22.8870  -25.7590   18.8970 H   0  0  0  0  0  0  0  0  0  0  0  0
   21.2250  -25.8630   19.2100 H   0  0  0  0  0  0  0  0  0  0  0  0
   20.7640  -24.0820   17.6550 H   0  0  0  0  0  0  0  0  0  0  0  0
   20.6660  -22.5440   16.5080 H   0  0  0  0  0  0  0  0  0  0  0  0
   21.1480  -25.0160   17.9870 H   0  0  0  0  0  0  0  0  0  0  0  0
   23.9360  -24.1640   18.2210 H   0  0  0  0  0  0  0  0  0  0  0  0
   24.1600  -20.6040   24.8980 H   0  0  0  0  0  0  0  0  0  0  0  0
   23.2120  -22.1610   24.9320 H   0  0  0  0  0  0  0  0  0  0  0  0
   21.4730  -20.6330   23.4660 H   0  0  0  0  0  0  0  0  0  0  0  0
   22.1450  -18.4300   23.1220 H   0  0  0  0  0  0  0  0  0  0  0  0
   22.1890  -18.5400   24.8410 H   0  0  0  0  0  0  0  0  0  0  0  0
  1  2  1  0
  2  3  2  0
  2  4  1  0
  4  5  1  0
  5  6  1  0
  6  7  1  0
  7  8  1  6
  8  9  2  0
  8 10  1  0
 10 11  1  0
 11 12  2  0
 12 13  1  0
 13 14  1  0
 14 15  2  0
 15 16  1  0
 16 17  2  0
 11 18  1  0
 15 18  1  0
 17 18  1  0
  7 19  1  0
  7 20  1  0
 19 20  1  0
  4 21  1  0
 20 21  1  0
  1 22  1  0
  1 23  1  0
  4 24  1  6
  5 25  1  0
  5 26  1  0
  6 27  1  0
  6 28  1  0
 10 29  1  0
 12 30  1  0
 13 31  1  0
 13 32  1  0
 14 33  1  0
 16 34  1  0
 17 35  1  0
 18 36  1  6
 19 37  1  0
 19 38  1  0
 20 39  1  6
 21 40  1  0
 21 41  1  0
M  CHG  1   7   1
M  END
