
     RDKit          3D

 41 44  0  0  0  0  0  0  0  0999 V2000
   24.0190  -16.5180   25.5990 N   0  0  0  0  0  0  0  0  0  0  0  0
   24.2870  -17.5710   25.1770 C   0  0  0  0  0  0  0  0  0  0  0  0
   25.5770  -17.8090   25.7320 O   0  0  0  0  0  0  0  0  0  0  0  0
   24.1910  -18.8920   24.4430 C   0  0  2  0  0  0  0  0  0  0  0  0
   24.9900  -19.1530   23.3160 C   0  0  0  0  0  0  0  0  0  0  0  0
   24.4270  -20.2460   22.3500 C   0  0  0  0  0  0  0  0  0  0  0  0
   23.4460  -21.2230   22.9130 N   0  0  1  0  0  0  0  0  0  0  0  0
   22.8330  -22.2420   22.0050 C   0  0  0  0  0  0  0  0  0  0  0  0
   21.6090  -22.4740   22.0810 O   0  0  0  0  0  0  0  0  0  0  0  0
   23.7690  -22.9630   21.1060 N   0  0  0  0  0  0  0  0  0  0  0  0
   23.7100  -22.7050   19.6580 C   0  0  0  0  0  0  0  0  0  0  0  0
   24.3970  -21.4030   19.2450 C   0  0  0  0  0  0  0  0  0  0  0  0
   24.4270  -21.0540   17.8680 C   0  0  0  0  0  0  0  0  0  0  0  0
   23.0630  -21.2840   17.2830 C   0  0  0  0  0  0  0  0  0  0  0  0
   22.3600  -22.5730   17.6610 C   0  0  0  0  0  0  0  0  0  0  0  0
   21.2790  -23.3160   17.5770 C   0  0  0  0  0  0  0  0  0  0  0  0
   21.8110  -24.1970   18.3950 C   0  0  0  0  0  0  0  0  0  0  0  0
   23.1060  -23.6210   18.5880 C   0  0  2  0  0  0  0  0  0  0  0  0
   23.4940  -21.3960   24.2890 C   0  0  0  0  0  0  0  0  0  0  0  0
   22.4550  -20.5720   23.7900 C   0  0  1  0  0  0  0  0  0  0  0  0
   22.7560  -19.0990   24.0510 C   0  0  0  0  0  0  0  0  0  0  0  0
   24.1580  -15.7930   24.8900 H   0  0  0  0  0  0  0  0  0  0  0  0
   23.1770  -16.3760   26.1590 H   0  0  0  0  0  0  0  0  0  0  0  0
   24.4210  -19.6780   25.1700 H   0  0  0  0  0  0  0  0  0  0  0  0
   25.3210  -18.2670   22.7850 H   0  0  0  0  0  0  0  0  0  0  0  0
   25.9380  -19.5620   23.6820 H   0  0  0  0  0  0  0  0  0  0  0  0
   23.9720  -19.7360   21.4950 H   0  0  0  0  0  0  0  0  0  0  0  0
   25.2960  -20.7540   21.9120 H   0  0  0  0  0  0  0  0  0  0  0  0
   24.7040  -23.1220   21.4490 H   0  0  0  0  0  0  0  0  0  0  0  0
   24.8540  -20.7490   19.9950 H   0  0  0  0  0  0  0  0  0  0  0  0
   25.1910  -21.6550   17.3760 H   0  0  0  0  0  0  0  0  0  0  0  0
   24.7710  -20.0410   17.6790 H   0  0  0  0  0  0  0  0  0  0  0  0
   22.5830  -20.5350   16.6420 H   0  0  0  0  0  0  0  0  0  0  0  0
   20.3530  -23.1610   17.0420 H   0  0  0  0  0  0  0  0  0  0  0  0
   21.3940  -25.1200   18.7880 H   0  0  0  0  0  0  0  0  0  0  0  0
   23.9370  -24.1330   18.1120 H   0  0  0  0  0  0  0  0  0  0  0  0
   23.0840  -22.3610   24.5750 H   0  0  0  0  0  0  0  0  0  0  0  0
   24.3480  -21.0850   24.8930 H   0  0  0  0  0  0  0  0  0  0  0  0
   21.4490  -20.7920   23.5460 H   0  0  0  0  0  0  0  0  0  0  0  0
   22.5540  -18.5770   23.1280 H   0  0  0  0  0  0  0  0  0  0  0  0
   22.0880  -18.6790   24.8050 H   0  0  0  0  0  0  0  0  0  0  0  0
  1  2  1  0
  2  3  2  0
  2  4  1  0
  4  5  1  0
  5  6  1  0
  6  7  1  0
  7  8  1  6
  8  9  2  0
  8 10  1  0
 10 11  1  0
 11 12  2  0
 12 13  1  0
 13 14  1  0
 14 15  2  0
 15 16  1  0
 16 17  2  0
 11 18  1  0
 15 18  1  0
 17 18  1  0
  7 19  1  0
  7 20  1  0
 19 20  1  0
  4 21  1  0
 20 21  1  0
  1 22  1  0
  1 23  1  0
  4 24  1  1
  5 25  1  0
  5 26  1  0
  6 27  1  0
  6 28  1  0
 10 29  1  0
 12 30  1  0
 13 31  1  0
 13 32  1  0
 14 33  1  0
 16 34  1  0
 17 35  1  0
 18 36  1  6
 19 37  1  0
 19 38  1  0
 20 39  1  6
 21 40  1  0
 21 41  1  0
M  CHG  1   7   1
M  END
