LIG
     RDKit          3D

 46 48  0  0  0  0  0  0  0  0999 V2000
    5.3930    0.6630   21.8670 C   0  0  0  0  0  0  0  0  0  0  0  0
    5.8360    0.5550   20.4100 C   0  0  0  0  0  0  0  0  0  0  0  0
    5.0650    1.0940   19.3800 C   0  0  0  0  0  0  0  0  0  0  0  0
    5.5190    0.9700   18.0740 C   0  0  0  0  0  0  0  0  0  0  0  0
    6.6520    0.3680   17.7870 N   0  0  0  0  0  0  0  0  0  0  0  0
    7.4050   -0.1450   18.7400 C   0  0  0  0  0  0  0  0  0  0  0  0
    7.0320   -0.0760   20.0760 C   0  0  0  0  0  0  0  0  0  0  0  0
    7.8860   -0.6570   21.1000 N   0  0  0  0  0  0  0  0  0  0  0  0
    9.1310   -0.0090   21.4750 C   0  0  0  0  0  0  0  0  0  0  0  0
    9.4550    1.0030   20.9560 O   0  0  0  0  0  0  0  0  0  0  0  0
   10.5470   -0.4775   23.2910 N   0  0  0  0  0  4  0  0  0  0  0  0
    9.9150   -0.3810   24.9080 C   0  0  0  0  0  0  0  0  0  0  0  0
   11.7030   -1.5600   23.6680 C   0  0  0  0  0  0  0  0  0  0  0  0
   12.7120   -1.4530   22.5630 C   0  0  0  0  0  0  0  0  0  0  0  0
   13.6620   -0.2980   22.8050 C   0  0  0  0  0  0  0  0  0  0  0  0
   12.8830    1.0330   23.0360 C   0  0  0  0  0  0  0  0  0  0  0  0
   13.4330    2.2640   22.6290 C   0  0  0  0  0  0  0  0  0  0  0  0
   12.7210    3.4490   22.8300 C   0  0  0  0  0  0  0  0  0  0  0  0
   11.4520    3.3830   23.4380 C   0  0  0  0  0  0  0  0  0  0  0  0
   10.4990    4.8830   23.7330 S   0  0  0  0  0  6  0  0  0  0  0  0
   11.4660    6.2570   23.4610 N   0  0  0  0  0  0  0  0  0  0  0  0
    9.9890    4.8060   25.0960 O   0  0  0  0  0  0  0  0  0  0  0  0
    9.2550    4.9160   22.9600 O   0  0  0  0  0  0  0  0  0  0  0  0
   10.9030    2.1690   23.8360 C   0  0  0  0  0  0  0  0  0  0  0  0
   11.6200    0.9750   23.6290 C   0  0  0  0  0  0  0  0  0  0  0  0
    4.4635    1.2277   21.9565 H   0  0  0  0  0  0  0  0  0  0  0  0
    6.1588    1.1802   22.4471 H   0  0  0  0  0  0  0  0  0  0  0  0
    5.3506    1.7125   22.1620 H   0  0  0  0  0  0  0  0  0  0  0  0
    4.1273    1.6032   19.5650 H   0  0  0  0  0  0  0  0  0  0  0  0
    4.9493    1.3677   17.2453 H   0  0  0  0  0  0  0  0  0  0  0  0
    8.3032   -0.6060   18.3880 H   0  0  0  0  0  0  0  0  0  0  0  0
    7.6068   -1.4478   21.5341 H   0  0  0  0  0  0  0  0  0  0  0  0
   10.4696   -1.1208   25.4373 H   0  0  0  0  0  0  0  0  0  0  0  0
    8.8745   -0.5642   24.7960 H   0  0  0  0  0  0  0  0  0  0  0  0
   10.1490    0.6160   25.2020 H   0  0  0  0  0  0  0  0  0  0  0  0
   12.0802   -1.2618   24.6128 H   0  0  0  0  0  0  0  0  0  0  0  0
   11.2097   -2.5010   23.6958 H   0  0  0  0  0  0  0  0  0  0  0  0
   13.2788   -2.3961   22.4460 H   0  0  0  0  0  0  0  0  0  0  0  0
   12.1999   -1.2989   21.5952 H   0  0  0  0  0  0  0  0  0  0  0  0
   14.2776   -0.5029   23.6772 H   0  0  0  0  0  0  0  0  0  0  0  0
   14.3095   -0.1445   21.9436 H   0  0  0  0  0  0  0  0  0  0  0  0
   14.4087    2.3093   22.1588 H   0  0  0  0  0  0  0  0  0  0  0  0
   13.1413    4.4005   22.5236 H   0  0  0  0  0  0  0  0  0  0  0  0
   12.4455    5.9745   23.4640 H   0  0  0  0  0  0  0  0  0  0  0  0
   12.1238    6.1666   22.6956 H   0  0  0  0  0  0  0  0  0  0  0  0
    9.9308    2.1682   24.3143 H   0  0  0  0  0  0  0  0  0  0  0  0
  1  2  1  0
  2  3  4  0
  3  4  4  0
  4  5  4  0
  5  6  4  0
  6  7  4  0
  7  8  1  0
  8  9  1  0
  9 10  2  0
  9 11  1  0
 11 12  1  0
 11 13  1  0
 13 14  1  0
 14 15  1  0
 15 16  1  0
 16 17  4  0
 17 18  4  0
 18 19  4  0
 19 20  1  0
 20 21  1  0
 20 22  2  0
 20 23  2  0
 19 24  4  0
 24 25  4  0
  7  2  4  0
 25 11  1  0
 25 16  4  0
  1 26  1  0
  1 27  1  0
  1 28  1  0
  3 29  1  0
  4 30  1  0
  6 31  1  0
  8 32  1  0
 12 33  1  0
 12 34  1  0
 12 35  1  0
 13 36  1  0
 13 37  1  0
 14 38  1  0
 14 39  1  0
 15 40  1  0
 15 41  1  0
 17 42  1  0
 18 43  1  0
 21 44  1  0
 21 45  1  0
 24 46  1  0
M  CHG  1  11   1
M  END
