
     RDKit          3D

 41 43  0  0  0  0  0  0  0  0999 V2000
    8.6240    0.6750   23.4810 C   0  0  0  0  0  0  0  0  0  0  0  0
   10.0460    0.3770   23.1200 C   0  0  0  0  0  0  0  0  0  0  0  0
   10.3850   -0.8970   22.7740 C   0  0  0  0  0  0  0  0  0  0  0  0
    9.1610   -1.6610   22.7210 N   0  0  0  0  0  0  0  0  0  0  0  0
    8.3930   -0.8230   21.7140 C   0  0  0  0  0  0  0  0  0  0  0  0
    8.8990    0.3960   21.2190 O   0  0  0  0  0  0  0  0  0  0  0  0
    7.0770   -1.2830   21.2490 N   0  0  0  0  0  0  0  0  0  0  0  0
    6.4600   -0.4290   20.1850 C   0  0  0  0  0  0  0  0  0  0  0  0
    5.3050    0.2740   20.4940 C   0  0  0  0  0  0  0  0  0  0  0  0
    4.6530    1.1580   19.4280 C   0  0  0  0  0  0  0  0  0  0  0  0
    5.3500    1.1450   18.2010 C   0  0  0  0  0  0  0  0  0  0  0  0
    6.4700    0.4640   17.9040 N   0  0  0  0  0  0  0  0  0  0  0  0
    6.9830   -0.2970   18.8990 C   0  0  0  0  0  0  0  0  0  0  0  0
   11.8870   -1.2260   22.4810 C   0  0  0  0  0  0  0  0  0  0  0  0
   12.7450   -0.1140   22.5460 C   0  0  0  0  0  0  0  0  0  0  0  0
   12.2670    1.1820   22.8350 C   0  0  0  0  0  0  0  0  0  0  0  0
   13.0780    2.3020   22.8190 C   0  0  0  0  0  0  0  0  0  0  0  0
   12.6300    3.6170   23.0690 C   0  0  0  0  0  0  0  0  0  0  0  0
   11.2770    3.8580   23.3840 C   0  0  0  0  0  0  0  0  0  0  0  0
   10.5270    5.4390   23.7100 S   0  0  2  0  0  0  0  0  0  0  0  0
   11.6950    6.5250   23.2220 N   0  0  0  0  0  0  0  0  0  0  0  0
   10.2580    5.6280   25.1060 O   0  0  0  0  0  0  0  0  0  0  0  0
    9.4400    5.5490   22.7730 O   0  0  0  0  0  0  0  0  0  0  0  0
   10.4330    2.6330   23.4120 C   0  0  0  0  0  0  0  0  0  0  0  0
   10.9390    1.4040   23.1300 C   0  0  0  0  0  0  0  0  0  0  0  0
    8.0410   -0.2330   23.6590 H   0  0  0  0  0  0  0  0  0  0  0  0
    8.6160    1.2590   24.4050 H   0  0  0  0  0  0  0  0  0  0  0  0
    8.1550    1.2550   22.6810 H   0  0  0  0  0  0  0  0  0  0  0  0
    8.6590   -1.8380   23.5800 H   0  0  0  0  0  0  0  0  0  0  0  0
    6.9830   -2.2810   21.1220 H   0  0  0  0  0  0  0  0  0  0  0  0
    4.8590    0.2000   21.4980 H   0  0  0  0  0  0  0  0  0  0  0  0
    3.7500    1.7370   19.5960 H   0  0  0  0  0  0  0  0  0  0  0  0
    4.9270    1.7630   17.4000 H   0  0  0  0  0  0  0  0  0  0  0  0
    7.8880   -0.8090   18.5460 H   0  0  0  0  0  0  0  0  0  0  0  0
   12.3160   -2.1960   22.2150 H   0  0  0  0  0  0  0  0  0  0  0  0
   13.8170   -0.1660   22.3540 H   0  0  0  0  0  0  0  0  0  0  0  0
   14.1170    2.1370   22.5840 H   0  0  0  0  0  0  0  0  0  0  0  0
   13.3440    4.4350   23.0170 H   0  0  0  0  0  0  0  0  0  0  0  0
   12.6550    6.1840   23.2610 H   0  0  0  0  0  0  0  0  0  0  0  0
   11.5820    7.3820   23.7640 H   0  0  0  0  0  0  0  0  0  0  0  0
    9.3780    2.7590   23.6460 H   0  0  0  0  0  0  0  0  0  0  0  0
  1  2  1  0
  2  3  2  0
  3  4  1  0
  4  5  1  0
  5  6  2  0
  5  7  1  0
  7  8  1  0
  8  9  2  0
  9 10  1  0
 10 11  2  0
 11 12  1  0
  8 13  1  0
 12 13  2  0
  3 14  1  0
 14 15  2  0
 15 16  1  0
 16 17  1  0
 17 18  2  0
 18 19  1  0
 19 20  1  0
 20 21  1  6
 20 22  2  0
 20 23  2  0
 19 24  2  0
  2 25  1  0
 16 25  2  0
 24 25  1  0
  1 26  1  0
  1 27  1  0
  1 28  1  0
  4 29  1  0
  7 30  1  0
  9 31  1  0
 10 32  1  0
 11 33  1  0
 13 34  1  0
 14 35  1  0
 15 36  1  0
 17 37  1  0
 18 38  1  0
 21 39  1  0
 21 40  1  0
 24 41  1  0
M  END
