LIG
     RDKit          3D

 32 33  0  0  0  0  0  0  0  0999 V2000
   13.6250   -2.3810   24.3190 C   0  0  0  0  0  0  0  0  0  0  0  0
   12.4190   -1.3225   24.1170 C   0  0  0  0  0  0  0  0  0  0  0  0
   12.9825   -0.8035   23.0440 C   0  0  0  0  0  0  0  0  0  0  0  0
   13.8060   -0.3340   22.7005 C   0  0  0  0  0  0  0  0  0  0  0  0
   12.6880    1.1005   23.3200 C   0  0  0  0  0  0  0  0  0  0  0  0
   13.2345    2.2830   22.8245 C   0  0  0  0  0  0  0  0  0  0  0  0
   12.5430    3.4785   22.9595 C   0  0  0  0  0  0  0  0  0  0  0  0
   11.2995    3.4820   23.5940 C   0  0  0  0  0  0  0  0  0  0  0  0
   10.3905    5.0255   23.7875 S   0  0  0  0  0  6  0  0  0  0  0  0
   11.3105    6.2645   23.4455 N   0  0  0  0  0  0  0  0  0  0  0  0
    9.0575    5.0270   22.9285 O   0  0  0  0  0  0  0  0  0  0  0  0
    9.9915    5.1555   25.1665 O   0  0  0  0  0  0  0  0  0  0  0  0
   10.7505    2.3085   24.0885 C   0  0  0  0  0  0  0  0  0  0  0  0
   11.4475    1.1065   23.9470 C   0  0  0  0  0  0  0  0  0  0  0  0
   11.0650   -0.3310   24.0360 N   0  0  0  0  0  0  0  0  0  0  0  0
    9.9150   -0.3810   24.9080 C   0  0  0  0  0  0  0  0  0  0  0  0
   13.6180   -3.1119   23.5253 H   0  0  0  0  0  0  0  0  0  0  0  0
   14.5615   -1.8413   24.2980 H   0  0  0  0  0  0  0  0  0  0  0  0
   13.5014   -2.8641   25.2775 H   0  0  0  0  0  0  0  0  0  0  0  0
   11.8227   -2.1973   23.1026 H   0  0  0  0  0  0  0  0  0  0  0  0
   12.6393   -1.7299   22.1491 H   0  0  0  0  0  0  0  0  0  0  0  0
   11.9248   -0.1721   22.5560 H   0  0  0  0  0  0  0  0  0  0  0  0
   13.8925    0.1195   21.7177 H   0  0  0  0  0  0  0  0  0  0  0  0
   14.6316    0.0336   23.3208 H   0  0  0  0  0  0  0  0  0  0  0  0
   14.1989    2.2813   22.3231 H   0  0  0  0  0  0  0  0  0  0  0  0
   12.9711    4.4019   22.5696 H   0  0  0  0  0  0  0  0  0  0  0  0
   10.8871    7.1638   23.7438 H   0  0  0  0  0  0  0  0  0  0  0  0
   12.2698    6.1599   23.8273 H   0  0  0  0  0  0  0  0  0  0  0  0
    9.7921    2.3436   24.5785 H   0  0  0  0  0  0  0  0  0  0  0  0
   10.1060    0.1465   25.8522 H   0  0  0  0  0  0  0  0  0  0  0  0
    9.0278    0.0520   24.4272 H   0  0  0  0  0  0  0  0  0  0  0  0
    9.5389    0.6247   25.1403 H   0  0  0  0  0  0  0  0  0  0  0  0
  1  2  1  0
  2  3  1  0
  3  4  1  0
  4  5  1  0
  5  6  4  0
  6  7  4  0
  7  8  4  0
  8  9  1  0
  9 10  1  0
  9 11  2  0
  9 12  2  0
  8 13  4  0
 13 14  4  0
 14 15  1  0
 15 16  1  0
 15  2  1  0
 14  5  4  0
  1 17  1  0
  1 18  1  0
  1 19  1  0
  2 20  1  0
  3 21  1  0
  3 22  1  0
  4 23  1  0
  4 24  1  0
  6 25  1  0
  7 26  1  0
 10 27  1  0
 10 28  1  0
 13 29  1  0
 16 30  1  0
 16 31  1  0
 16 32  1  0
M  END
