
     RDKit          3D

 49 52  0  0  0  0  0  0  0  0999 V2000
   24.2860  -14.3210   24.7530 C   0  0  0  0  0  0  0  0  0  0  0  0
   24.0040  -14.9080   26.1090 C   0  0  0  0  0  0  0  0  0  0  0  0
   24.4020  -14.3670   27.1190 O   0  0  0  0  0  0  0  0  0  0  0  0
   23.2810  -16.0800   26.1020 N   0  0  0  0  0  0  0  0  0  0  0  0
   23.6370  -17.1720   25.2260 C   0  0  0  0  0  0  0  0  0  0  0  0
   25.1000  -17.5550   25.2870 C   0  0  0  0  0  0  0  0  0  0  0  0
   25.4890  -18.6710   24.3940 C   0  0  0  0  0  0  0  0  0  0  0  0
   24.6550  -19.3580   23.5510 C   0  0  0  0  0  0  0  0  0  0  0  0
   25.2430  -20.3740   22.8080 O   0  0  0  0  0  0  0  0  0  0  0  0
   24.8600  -20.6880   21.5020 C   0  0  0  0  0  0  0  0  0  0  0  0
   25.5640  -20.2760   20.6300 N   0  0  0  0  0  0  0  0  0  0  0  0
   25.3030  -20.5430   19.2950 C   0  0  0  0  0  0  0  0  0  0  0  0
   24.1050  -21.3620   18.9590 C   0  0  0  0  0  0  0  0  0  0  0  0
   23.3270  -21.7830   20.1740 C   0  0  0  0  0  0  0  0  0  0  0  0
   22.1000  -22.5530   19.9900 N   0  0  0  0  0  0  0  0  0  0  0  0
   21.9930  -23.7330   19.2520 C   0  0  0  0  0  0  0  0  0  0  0  0
   22.1440  -25.2810   19.9440 S   0  0  0  0  0  0  0  0  0  0  0  0
   21.8390  -25.9580   18.3460 C   0  0  0  0  0  0  0  0  0  0  0  0
   21.8100  -27.3420   18.3390 C   0  0  0  0  0  0  0  0  0  0  0  0
   21.6470  -25.1410   17.2500 N   0  0  0  0  0  0  0  0  0  0  0  0
   21.7310  -23.8350   17.9000 C   0  0  0  0  0  0  0  0  0  0  0  0
   21.4940  -22.7420   17.0170 C   0  0  0  0  0  0  0  0  0  0  0  0
   21.9740  -22.8410   15.5800 C   0  0  0  0  0  0  0  0  0  0  0  0
   21.7180  -21.7820   14.7080 C   0  0  0  0  0  0  0  0  0  0  0  0
   21.0420  -20.6080   15.0670 C   0  0  0  0  0  0  0  0  0  0  0  0
   20.5840  -20.4590   16.3910 C   0  0  0  0  0  0  0  0  0  0  0  0
   20.8240  -21.5790   17.4030 C   0  0  0  0  0  0  0  0  0  0  0  0
   23.7510  -21.4310   21.3750 N   0  0  0  0  0  0  0  0  0  0  0  0
   23.3010  -18.9960   23.5050 C   0  0  0  0  0  0  0  0  0  0  0  0
   22.7900  -17.8720   24.3700 C   0  0  0  0  0  0  0  0  0  0  0  0
   23.6400  -13.4600   24.5460 H   0  0  0  0  0  0  0  0  0  0  0  0
   24.1020  -15.0780   23.9860 H   0  0  0  0  0  0  0  0  0  0  0  0
   25.3290  -13.9960   24.7140 H   0  0  0  0  0  0  0  0  0  0  0  0
   22.6240  -16.2640   26.8520 H   0  0  0  0  0  0  0  0  0  0  0  0
   25.8840  -17.1150   25.8970 H   0  0  0  0  0  0  0  0  0  0  0  0
   26.5490  -18.8700   24.5080 H   0  0  0  0  0  0  0  0  0  0  0  0
   26.0250  -20.1090   18.6110 H   0  0  0  0  0  0  0  0  0  0  0  0
   23.7960  -21.6310   17.9420 H   0  0  0  0  0  0  0  0  0  0  0  0
   21.2230  -22.1940   20.3250 H   0  0  0  0  0  0  0  0  0  0  0  0
   20.8770  -27.8190   18.0500 H   0  0  0  0  0  0  0  0  0  0  0  0
   22.6030  -27.6640   17.6200 H   0  0  0  0  0  0  0  0  0  0  0  0
   22.0510  -27.8110   19.2870 H   0  0  0  0  0  0  0  0  0  0  0  0
   22.5040  -23.7170   15.2140 H   0  0  0  0  0  0  0  0  0  0  0  0
   22.1100  -21.9780   13.7010 H   0  0  0  0  0  0  0  0  0  0  0  0
   20.8770  -19.8200   14.3370 H   0  0  0  0  0  0  0  0  0  0  0  0
   20.0610  -19.5520   16.6880 H   0  0  0  0  0  0  0  0  0  0  0  0
   20.4630  -21.4520   18.4100 H   0  0  0  0  0  0  0  0  0  0  0  0
   22.6200  -19.5200   22.8540 H   0  0  0  0  0  0  0  0  0  0  0  0
   21.7500  -17.6270   24.3050 H   0  0  0  0  0  0  0  0  0  0  0  0
  1  2  1  0
  2  3  2  0
  2  4  1  0
  4  5  1  0
  5  6  2  0
  6  7  1  0
  7  8  2  0
  8  9  1  0
  9 10  1  0
 10 11  2  0
 11 12  1  0
 12 13  2  0
 13 14  1  0
 14 15  1  0
 15 16  1  0
 16 17  1  0
 17 18  1  0
 18 19  1  0
 18 20  2  0
 16 21  2  0
 20 21  1  0
 21 22  1  0
 22 23  2  0
 23 24  1  0
 24 25  2  0
 25 26  1  0
 22 27  1  0
 26 27  2  0
 10 28  1  0
 14 28  2  0
  8 29  1  0
  5 30  1  0
 29 30  2  0
  1 31  1  0
  1 32  1  0
  1 33  1  0
  4 34  1  0
  6 35  1  0
  7 36  1  0
 12 37  1  0
 13 38  1  0
 15 39  1  0
 19 40  1  0
 19 41  1  0
 19 42  1  0
 23 43  1  0
 24 44  1  0
 25 45  1  0
 26 46  1  0
 27 47  1  0
 29 48  1  0
 30 49  1  0
M  END
