
     RDKit          3D

 32 33  0  0  0  0  0  0  0  0999 V2000
   12.5670   -1.9370   24.7900 C   0  0  0  0  0  0  0  0  0  0  0  0
   11.6480   -1.4950   23.6810 C   0  0  2  0  0  0  0  0  0  0  0  0
   12.3710   -1.1410   22.5740 C   0  0  0  0  0  0  0  0  0  0  0  0
   13.2470    0.0340   22.9190 C   0  0  0  0  0  0  0  0  0  0  0  0
   12.4360    1.2590   23.1480 C   0  0  0  0  0  0  0  0  0  0  0  0
   12.9260    2.5180   22.8180 C   0  0  0  0  0  0  0  0  0  0  0  0
   12.0490    3.7330   23.0370 C   0  0  0  0  0  0  0  0  0  0  0  0
   10.7810    3.5440   23.5750 C   0  0  0  0  0  0  0  0  0  0  0  0
    9.7970    5.0150   23.7980 S   0  0  1  0  0  0  0  0  0  0  0  0
   10.9690    6.2240   23.6640 N   0  0  0  0  0  0  0  0  0  0  0  0
    8.9080    5.1480   22.6760 O   0  0  0  0  0  0  0  0  0  0  0  0
    9.2600    5.1270   25.1380 O   0  0  0  0  0  0  0  0  0  0  0  0
   10.2420    2.1910   23.9580 C   0  0  0  0  0  0  0  0  0  0  0  0
   11.1770    1.0060   23.7070 C   0  0  0  0  0  0  0  0  0  0  0  0
   10.7990   -0.3270   24.0260 N   0  0  0  0  0  0  0  0  0  0  0  0
    9.8850   -0.4270   25.1650 C   0  0  0  0  0  0  0  0  0  0  0  0
   13.5610   -2.1950   24.4130 H   0  0  0  0  0  0  0  0  0  0  0  0
   12.6810   -1.1180   25.5040 H   0  0  0  0  0  0  0  0  0  0  0  0
   12.1430   -2.8140   25.2770 H   0  0  0  0  0  0  0  0  0  0  0  0
   11.0040   -2.3410   23.4210 H   0  0  0  0  0  0  0  0  0  0  0  0
   12.9800   -1.9700   22.1940 H   0  0  0  0  0  0  0  0  0  0  0  0
   11.6530   -0.8850   21.7940 H   0  0  0  0  0  0  0  0  0  0  0  0
   13.9800    0.2020   22.1390 H   0  0  0  0  0  0  0  0  0  0  0  0
   13.7910   -0.2010   23.8250 H   0  0  0  0  0  0  0  0  0  0  0  0
   13.8880    2.7410   22.4100 H   0  0  0  0  0  0  0  0  0  0  0  0
   12.4030    4.7340   22.7780 H   0  0  0  0  0  0  0  0  0  0  0  0
   10.6000    7.0790   24.0860 H   0  0  0  0  0  0  0  0  0  0  0  0
   11.8720    5.9590   24.0570 H   0  0  0  0  0  0  0  0  0  0  0  0
    9.2540    2.0320   24.3860 H   0  0  0  0  0  0  0  0  0  0  0  0
   10.4390   -0.5460   26.0950 H   0  0  0  0  0  0  0  0  0  0  0  0
    9.1760   -1.2460   25.0450 H   0  0  0  0  0  0  0  0  0  0  0  0
    9.2710    0.4710   25.2360 H   0  0  0  0  0  0  0  0  0  0  0  0
  1  2  1  0
  2  3  1  0
  3  4  1  0
  4  5  1  0
  5  6  1  0
  6  7  2  0
  7  8  1  0
  8  9  1  0
  9 10  1  6
  9 11  2  0
  9 12  2  0
  8 13  2  0
  5 14  2  0
 13 14  1  0
  2 15  1  0
 14 15  1  0
 15 16  1  0
  1 17  1  0
  1 18  1  0
  1 19  1  0
  2 20  1  6
  3 21  1  0
  3 22  1  0
  4 23  1  0
  4 24  1  0
  6 25  1  0
  7 26  1  0
 10 27  1  0
 10 28  1  0
 13 29  1  0
 16 30  1  0
 16 31  1  0
 16 32  1  0
M  END
