
     RDKit          3D

 43 44  0  0  0  0  0  0  0  0999 V2000
    6.5160   -5.3090   26.4790 C   0  0  0  0  0  0  0  0  0  0  0  0
    8.0820   -4.5110   26.2230 S   0  0  2  0  0  0  0  0  0  0  0  0
    9.1090   -5.5090   26.0390 O   0  0  0  0  0  0  0  0  0  0  0  0
    8.1880   -3.4720   27.2170 O   0  0  0  0  0  0  0  0  0  0  0  0
    7.8330   -3.7150   24.7590 N   0  0  0  0  0  0  0  0  0  0  0  0
    9.0050   -3.1020   24.1070 C   0  0  0  0  0  0  0  0  0  0  0  0
    8.7240   -1.7560   23.8240 C   0  0  0  0  0  0  0  0  0  0  0  0
    9.5680   -0.6770   24.5020 C   0  0  0  0  0  0  0  0  0  0  0  0
   10.7410   -0.3240   23.7090 N   0  0  0  0  0  0  0  0  0  0  0  0
   11.1110   -1.2960   22.6630 C   0  0  0  0  0  0  0  0  0  0  0  0
   12.4670   -1.3220   22.3670 C   0  0  0  0  0  0  0  0  0  0  0  0
   13.2180   -0.1250   22.9400 C   0  0  0  0  0  0  0  0  0  0  0  0
   12.4760    1.0590   23.0910 C   0  0  0  0  0  0  0  0  0  0  0  0
   13.0390    2.4200   22.8280 C   0  0  0  0  0  0  0  0  0  0  0  0
   12.1450    3.6120   23.0260 C   0  0  0  0  0  0  0  0  0  0  0  0
   10.8580    3.4270   23.4450 C   0  0  0  0  0  0  0  0  0  0  0  0
    9.8490    4.8750   23.6720 S   0  0  1  0  0  0  0  0  0  0  0  0
   11.0000    6.1030   23.5540 N   0  0  0  0  0  0  0  0  0  0  0  0
    8.9960    5.0300   22.5350 O   0  0  0  0  0  0  0  0  0  0  0  0
    9.2720    4.9690   24.9950 O   0  0  0  0  0  0  0  0  0  0  0  0
   10.3790    2.1210   23.6810 C   0  0  0  0  0  0  0  0  0  0  0  0
   11.1670    0.9700   23.5050 C   0  0  0  0  0  0  0  0  0  0  0  0
    5.8650   -4.6280   27.0350 H   0  0  0  0  0  0  0  0  0  0  0  0
    6.0540   -5.5340   25.5150 H   0  0  0  0  0  0  0  0  0  0  0  0
    6.6630   -6.2280   27.0570 H   0  0  0  0  0  0  0  0  0  0  0  0
    7.1510   -4.2080   24.1990 H   0  0  0  0  0  0  0  0  0  0  0  0
    9.8760   -3.1770   24.7600 H   0  0  0  0  0  0  0  0  0  0  0  0
    9.1990   -3.6370   23.1760 H   0  0  0  0  0  0  0  0  0  0  0  0
    8.8310   -1.6120   22.7400 H   0  0  0  0  0  0  0  0  0  0  0  0
    7.6600   -1.5860   24.0250 H   0  0  0  0  0  0  0  0  0  0  0  0
    8.9590    0.2160   24.6990 H   0  0  0  0  0  0  0  0  0  0  0  0
    9.8780   -1.0280   25.4950 H   0  0  0  0  0  0  0  0  0  0  0  0
   10.8180   -2.3050   22.9690 H   0  0  0  0  0  0  0  0  0  0  0  0
   10.5470   -1.0760   21.7470 H   0  0  0  0  0  0  0  0  0  0  0  0
   12.6150   -1.3750   21.2890 H   0  0  0  0  0  0  0  0  0  0  0  0
   12.8990   -2.2480   22.7580 H   0  0  0  0  0  0  0  0  0  0  0  0
   14.0520    0.0820   22.2810 H   0  0  0  0  0  0  0  0  0  0  0  0
   13.6250   -0.3880   23.9170 H   0  0  0  0  0  0  0  0  0  0  0  0
   14.0580    2.5630   22.5090 H   0  0  0  0  0  0  0  0  0  0  0  0
   12.5350    4.6110   22.8390 H   0  0  0  0  0  0  0  0  0  0  0  0
   11.0590    6.4210   22.5850 H   0  0  0  0  0  0  0  0  0  0  0  0
   11.8910    5.7850   23.9410 H   0  0  0  0  0  0  0  0  0  0  0  0
    9.3510    2.0270   24.0100 H   0  0  0  0  0  0  0  0  0  0  0  0
  1  2  1  0
  2  3  2  0
  2  4  2  0
  2  5  1  6
  5  6  1  0
  6  7  1  0
  7  8  1  0
  8  9  1  0
  9 10  1  0
 10 11  1  0
 11 12  1  0
 12 13  1  0
 13 14  1  0
 14 15  2  0
 15 16  1  0
 16 17  1  0
 17 18  1  1
 17 19  2  0
 17 20  2  0
 16 21  2  0
  9 22  1  0
 13 22  2  0
 21 22  1  0
  1 23  1  0
  1 24  1  0
  1 25  1  0
  5 26  1  0
  6 27  1  0
  6 28  1  0
  7 29  1  0
  7 30  1  0
  8 31  1  0
  8 32  1  0
 10 33  1  0
 10 34  1  0
 11 35  1  0
 11 36  1  0
 12 37  1  0
 12 38  1  0
 14 39  1  0
 15 40  1  0
 18 41  1  0
 18 42  1  0
 21 43  1  0
M  END
