LIG
     RDKit          3D

 41 43  0  0  0  0  0  0  0  0999 V2000
    9.9150   -0.3810   24.9080 C   0  0  0  0  0  0  0  0  0  0  0  0
   10.8100    0.0235   23.9770 C   0  0  0  0  0  0  0  0  0  0  0  0
   11.1105   -1.0080   23.2435 C   0  0  0  0  0  0  0  0  0  0  0  0
    9.2320   -0.9350   22.4160 N   0  0  0  0  0  0  0  0  0  0  0  0
    8.5920   -0.2080   21.3470 C   0  0  0  0  0  0  0  0  0  0  0  0
    9.1440    0.7090   20.8350 O   0  0  0  0  0  0  0  0  0  0  0  0
    7.2840   -0.6350   20.9180 N   0  0  0  0  0  0  0  0  0  0  0  0
    6.6030    0.0510   19.8530 C   0  0  0  0  0  0  0  0  0  0  0  0
    5.3980    0.6740   20.1340 C   0  0  0  0  0  0  0  0  0  0  0  0
    4.7680    1.3310   19.0890 C   0  0  0  0  0  0  0  0  0  0  0  0
    5.3600    1.2970   17.8310 C   0  0  0  0  0  0  0  0  0  0  0  0
    6.5100    0.7030   17.6230 N   0  0  0  0  0  0  0  0  0  0  0  0
    7.1440    0.0770   18.5790 C   0  0  0  0  0  0  0  0  0  0  0  0
   12.1870   -1.1115   22.3375 C   0  0  0  0  0  0  0  0  0  0  0  0
   13.2680   -0.2775   22.6685 C   0  0  0  0  0  0  0  0  0  0  0  0
   12.9010    0.8050   23.3360 C   0  0  0  0  0  0  0  0  0  0  0  0
   13.4330    2.2640   22.6290 C   0  0  0  0  0  0  0  0  0  0  0  0
   12.7210    3.4490   22.8300 C   0  0  0  0  0  0  0  0  0  0  0  0
   11.4520    3.3830   23.4380 C   0  0  0  0  0  0  0  0  0  0  0  0
   10.4990    4.8830   23.7330 S   0  0  0  0  0  6  0  0  0  0  0  0
   11.4660    6.2570   23.4610 N   0  0  0  0  0  0  0  0  0  0  0  0
    9.9890    4.8060   25.0960 O   0  0  0  0  0  0  0  0  0  0  0  0
    9.2550    4.9160   22.9600 O   0  0  0  0  0  0  0  0  0  0  0  0
   10.9030    2.1690   23.8360 C   0  0  0  0  0  0  0  0  0  0  0  0
   11.6900    0.9330   23.9800 C   0  0  0  0  0  0  0  0  0  0  0  0
    9.0799   -1.0091   24.4938 H   0  0  0  0  0  0  0  0  0  0  0  0
    9.7844   -1.4960   25.0026 H   0  0  0  0  0  0  0  0  0  0  0  0
   10.3285   -0.9809   25.7667 H   0  0  0  0  0  0  0  0  0  0  0  0
    8.7295   -1.4794   23.0979 H   0  0  0  0  0  0  0  0  0  0  0  0
    6.9666   -1.4788   21.2185 H   0  0  0  0  0  0  0  0  0  0  0  0
    4.9430    0.6621   21.1015 H   0  0  0  0  0  0  0  0  0  0  0  0
    3.8338    1.8599   19.2408 H   0  0  0  0  0  0  0  0  0  0  0  0
    4.8814    1.7625   16.9832 H   0  0  0  0  0  0  0  0  0  0  0  0
    8.0606   -0.3896   18.3315 H   0  0  0  0  0  0  0  0  0  0  0  0
   12.2289   -1.7374   21.5255 H   0  0  0  0  0  0  0  0  0  0  0  0
   14.2407   -0.5575   22.4060 H   0  0  0  0  0  0  0  0  0  0  0  0
   14.3064    2.1555   22.0739 H   0  0  0  0  0  0  0  0  0  0  0  0
   13.1433    4.3986   22.5293 H   0  0  0  0  0  0  0  0  0  0  0  0
   11.1149    6.7582   22.6494 H   0  0  0  0  0  0  0  0  0  0  0  0
   10.8740    7.0821   23.4218 H   0  0  0  0  0  0  0  0  0  0  0  0
    9.8361    2.1301   24.0648 H   0  0  0  0  0  0  0  0  0  0  0  0
  1  2  1  0
  2  3  4  0
  3  4  1  0
  4  5  1  0
  5  6  2  0
  5  7  1  0
  7  8  1  0
  8  9  4  0
  9 10  4  0
 10 11  4  0
 11 12  4  0
 12 13  4  0
  3 14  4  0
 14 15  4  0
 15 16  4  0
 16 17  4  0
 17 18  4  0
 18 19  4  0
 19 20  1  0
 20 21  1  0
 20 22  2  0
 20 23  2  0
 19 24  4  0
 24 25  4  0
 25  2  4  0
 13  8  4  0
 25 16  4  0
  1 26  1  0
  1 27  1  0
  1 28  1  0
  4 29  1  0
  7 30  1  0
  9 31  1  0
 10 32  1  0
 11 33  1  0
 13 34  1  0
 14 35  1  0
 15 36  1  0
 17 37  1  0
 18 38  1  0
 21 39  1  0
 21 40  1  0
 24 41  1  0
M  END
