
     RDKit          3D

 52 55  0  0  0  0  0  0  0  0999 V2000
   11.1600    5.8520   23.4760 N   0  0  0  0  0  0  0  0  0  0  0  0
    9.8260    4.7810   23.5930 S   0  0  1  0  0  0  0  0  0  0  0  0
    9.3570    4.8260   24.9610 O   0  0  0  0  0  0  0  0  0  0  0  0
    8.9200    5.2500   22.5900 O   0  0  0  0  0  0  0  0  0  0  0  0
   10.5050    3.1660   23.0310 C   0  0  1  0  0  0  0  0  0  0  0  0
   11.9830    3.2170   22.8900 C   0  0  0  0  0  0  0  0  0  0  0  0
   12.6490    1.9930   22.8520 C   0  0  0  0  0  0  0  0  0  0  0  0
   12.3510    0.7870   23.7170 C   0  0  2  0  0  0  0  0  0  0  0  0
   12.9840   -0.3750   23.0390 C   0  0  0  0  0  0  0  0  0  0  0  0
   12.3280   -1.0580   22.0600 C   0  0  1  0  0  0  0  0  0  0  0  0
   11.6600   -2.2250   22.1350 C   0  0  0  0  0  0  0  0  0  0  0  0
   10.8640   -0.9660   22.1690 C   0  0  1  0  0  0  0  0  0  0  0  0
   10.2310   -0.6080   23.3610 N   0  0  0  0  0  0  0  0  0  0  0  0
    8.9430   -1.0870   23.9150 C   0  0  0  0  0  0  0  0  0  0  0  0
    8.9330   -2.2640   24.7060 N   0  0  0  0  0  0  0  0  0  0  0  0
    9.0240   -3.6930   24.3060 C   0  0  0  0  0  0  0  0  0  0  0  0
    9.0210   -4.6960   25.2890 C   0  0  0  0  0  0  0  0  0  0  0  0
    8.1010   -4.5500   26.3060 C   0  0  1  0  0  0  0  0  0  0  0  0
    8.6770   -4.6770   27.3790 O   0  0  0  0  0  0  0  0  0  0  0  0
    7.4610   -3.3220   26.2790 C   0  0  0  0  0  0  0  0  0  0  0  0
    8.1270   -2.1360   25.9230 C   0  0  0  0  0  0  0  0  0  0  0  0
   10.8200    0.6230   24.0010 C   0  0  2  0  0  0  0  0  0  0  0  0
    9.9610    1.9190   23.8070 C   0  0  0  0  0  0  0  0  0  0  0  0
   11.9970    5.4220   23.8750 H   0  0  0  0  0  0  0  0  0  0  0  0
   10.9240    6.7500   23.9030 H   0  0  0  0  0  0  0  0  0  0  0  0
   10.1260    3.0440   22.0130 H   0  0  0  0  0  0  0  0  0  0  0  0
   12.3830    3.8500   23.6740 H   0  0  0  0  0  0  0  0  0  0  0  0
   12.1910    3.7280   21.9430 H   0  0  0  0  0  0  0  0  0  0  0  0
   12.4650    1.6250   21.8850 H   0  0  0  0  0  0  0  0  0  0  0  0
   13.7190    2.1630   22.8440 H   0  0  0  0  0  0  0  0  0  0  0  0
   12.7890    0.8610   24.6840 H   0  0  0  0  0  0  0  0  0  0  0  0
   13.8470    0.0520   22.5160 H   0  0  0  0  0  0  0  0  0  0  0  0
   13.4660   -1.0380   23.7410 H   0  0  0  0  0  0  0  0  0  0  0  0
   12.9290   -1.1220   21.1510 H   0  0  0  0  0  0  0  0  0  0  0  0
   11.5250   -2.6800   21.1580 H   0  0  0  0  0  0  0  0  0  0  0  0
   11.3990   -2.8110   22.9860 H   0  0  0  0  0  0  0  0  0  0  0  0
   10.2380   -0.7460   21.2960 H   0  0  0  0  0  0  0  0  0  0  0  0
    8.2340   -1.2160   23.0990 H   0  0  0  0  0  0  0  0  0  0  0  0
    8.5240   -0.2780   24.5240 H   0  0  0  0  0  0  0  0  0  0  0  0
    9.9660   -3.7650   23.7680 H   0  0  0  0  0  0  0  0  0  0  0  0
    8.2890   -3.8160   23.5150 H   0  0  0  0  0  0  0  0  0  0  0  0
   10.0150   -4.8550   25.6930 H   0  0  0  0  0  0  0  0  0  0  0  0
    8.7700   -5.6450   24.8110 H   0  0  0  0  0  0  0  0  0  0  0  0
    7.4230   -5.3970   26.3360 H   0  0  0  0  0  0  0  0  0  0  0  0
    8.2040   -5.3620   27.8850 H   0  0  0  0  0  0  0  0  0  0  0  0
    6.5930   -3.4270   25.6180 H   0  0  0  0  0  0  0  0  0  0  0  0
    7.0160   -3.1670   27.2710 H   0  0  0  0  0  0  0  0  0  0  0  0
    7.3590   -1.3690   25.7690 H   0  0  0  0  0  0  0  0  0  0  0  0
    8.7450   -1.7930   26.7630 H   0  0  0  0  0  0  0  0  0  0  0  0
   10.7830    0.4090   25.0750 H   0  0  0  0  0  0  0  0  0  0  0  0
    9.6160    2.2190   24.8010 H   0  0  0  0  0  0  0  0  0  0  0  0
    9.0340    1.6390   23.2880 H   0  0  0  0  0  0  0  0  0  0  0  0
  2  1  1  1
  2  3  2  0
  2  4  2  0
  2  5  1  0
  5  6  1  0
  6  7  1  0
  7  8  1  0
  8  9  1  0
  9 10  1  0
 10 11  1  0
 10 12  1  0
 11 12  1  0
 12 13  1  0
 13 14  1  0
 14 15  1  0
 15 16  1  0
 16 17  1  0
 17 18  1  0
 18 19  1  0
 18 20  1  0
 15 21  1  0
 20 21  1  0
  8 22  1  0
 13 22  1  0
  5 23  1  0
 22 23  1  0
  1 24  1  0
  1 25  1  0
  5 26  1  6
  6 27  1  0
  6 28  1  0
  7 29  1  0
  7 30  1  0
  8 31  1  1
  9 32  1  0
  9 33  1  0
 10 34  1  6
 11 35  1  0
 11 36  1  0
 12 37  1  6
 14 38  1  0
 14 39  1  0
 16 40  1  0
 16 41  1  0
 17 42  1  0
 17 43  1  0
 18 44  1  6
 19 45  1  0
 20 46  1  0
 20 47  1  0
 21 48  1  0
 21 49  1  0
 22 50  1  1
 23 51  1  0
 23 52  1  0
M  END
