
     RDKit          3D

 41 44  0  0  0  0  0  0  0  0999 V2000
    8.8340   -5.4830   26.4530 C   0  0  0  0  0  0  0  0  0  0  0  0
    8.5960   -4.1490   25.7850 C   0  0  0  0  0  0  0  0  0  0  0  0
    8.0080   -3.1290   26.5020 N   0  0  0  0  0  0  0  0  0  0  0  0
    7.9290   -1.9430   25.6290 N   0  0  0  0  0  0  0  0  0  0  0  0
    8.4640   -2.2100   24.3540 C   0  0  0  0  0  0  0  0  0  0  0  0
    8.6160   -1.2640   23.1770 C   0  0  0  0  0  0  0  0  0  0  0  0
   10.0400   -1.2010   23.1970 N   0  0  0  0  0  0  0  0  0  0  0  0
   10.9220   -0.5720   22.5100 C   0  0  2  0  0  0  0  0  0  0  0  0
   12.1760   -1.1240   22.3280 C   0  0  0  0  0  0  0  0  0  0  0  0
   13.1550   -0.1730   22.9890 C   0  0  0  0  0  0  0  0  0  0  0  0
   12.4570    1.0450   23.1540 C   0  0  0  0  0  0  0  0  0  0  0  0
   13.0060    2.4030   22.8320 C   0  0  0  0  0  0  0  0  0  0  0  0
   12.2010    3.6690   23.0050 C   0  0  0  0  0  0  0  0  0  0  0  0
   10.9340    3.5150   23.4880 C   0  0  0  0  0  0  0  0  0  0  0  0
    9.9700    4.9370   23.7010 S   0  0  1  0  0  0  0  0  0  0  0  0
   11.1250    6.1540   23.5700 N   0  0  0  0  0  0  0  0  0  0  0  0
    9.1120    5.0320   22.5570 O   0  0  0  0  0  0  0  0  0  0  0  0
    9.3440    5.0150   25.0050 O   0  0  0  0  0  0  0  0  0  0  0  0
   10.4470    2.2430   23.7980 C   0  0  0  0  0  0  0  0  0  0  0  0
   11.1490    1.0290   23.6550 C   0  0  0  0  0  0  0  0  0  0  0  0
   10.6860   -0.1850   23.9640 N   0  0  2  0  0  0  0  0  0  0  0  0
    9.6730    0.0510   24.8440 C   0  0  0  0  0  0  0  0  0  0  0  0
    9.0270   -3.8010   24.1700 S   0  0  0  0  0  0  0  0  0  0  0  0
    7.9650   -6.1380   26.3740 H   0  0  0  0  0  0  0  0  0  0  0  0
    9.6860   -5.9770   25.9680 H   0  0  0  0  0  0  0  0  0  0  0  0
    9.0600   -5.3250   27.5100 H   0  0  0  0  0  0  0  0  0  0  0  0
    8.1970   -1.7300   22.2760 H   0  0  0  0  0  0  0  0  0  0  0  0
    8.2230   -0.2540   23.2030 H   0  0  0  0  0  0  0  0  0  0  0  0
   10.5290    0.0980   21.7620 H   0  0  0  0  0  0  0  0  0  0  0  0
   12.2020   -2.0810   22.8340 H   0  0  0  0  0  0  0  0  0  0  0  0
   12.4110   -1.3100   21.2770 H   0  0  0  0  0  0  0  0  0  0  0  0
   13.9310    0.0280   22.2550 H   0  0  0  0  0  0  0  0  0  0  0  0
   13.6920   -0.5460   23.8520 H   0  0  0  0  0  0  0  0  0  0  0  0
   14.0220    2.4830   22.4630 H   0  0  0  0  0  0  0  0  0  0  0  0
   12.5750    4.6610   22.7730 H   0  0  0  0  0  0  0  0  0  0  0  0
   12.0180    5.8150   23.9100 H   0  0  0  0  0  0  0  0  0  0  0  0
   10.8710    7.0420   23.9930 H   0  0  0  0  0  0  0  0  0  0  0  0
    9.4320    2.1680   24.1890 H   0  0  0  0  0  0  0  0  0  0  0  0
    9.8020    0.9590   25.4170 H   0  0  0  0  0  0  0  0  0  0  0  0
    9.6710   -0.7790   25.5560 H   0  0  0  0  0  0  0  0  0  0  0  0
    8.7090    0.0640   24.3280 H   0  0  0  0  0  0  0  0  0  0  0  0
  1  2  1  0
  2  3  2  0
  3  4  1  0
  4  5  2  0
  5  6  1  0
  6  7  1  0
  7  8  1  0
  8  9  1  0
  9 10  1  0
 10 11  1  0
 11 12  2  0
 12 13  1  0
 13 14  2  0
 14 15  1  0
 15 16  1  6
 15 17  2  0
 15 18  2  0
 14 19  1  0
 11 20  1  0
 19 20  2  0
  7 21  1  0
  8 21  1  0
 20 21  1  0
 21 22  1  1
  2 23  1  0
  5 23  1  0
  1 24  1  0
  1 25  1  0
  1 26  1  0
  6 27  1  0
  6 28  1  0
  8 29  1  6
  9 30  1  0
  9 31  1  0
 10 32  1  0
 10 33  1  0
 12 34  1  0
 13 35  1  0
 16 36  1  0
 16 37  1  0
 19 38  1  0
 22 39  1  0
 22 40  1  0
 22 41  1  0
M  CHG  1  21   1
M  END
