LIG
     RDKit          3D

 45 48  0  0  0  0  0  0  0  0999 V2000
   11.4660    6.2570   23.4610 N   0  0  0  0  0  0  0  0  0  0  0  0
   10.4990    4.8830   23.7330 S   0  0  0  0  0  6  0  0  0  0  0  0
    9.9890    4.8060   25.0960 O   0  0  0  0  0  0  0  0  0  0  0  0
    9.2550    4.9160   22.9600 O   0  0  0  0  0  0  0  0  0  0  0  0
   10.8225    3.2700   22.8320 C   0  0  0  0  0  0  0  0  0  0  0  0
   12.7210    3.4490   22.8300 C   0  0  0  0  0  0  0  0  0  0  0  0
   13.4330    2.2640   22.6290 C   0  0  0  0  0  0  0  0  0  0  0  0
   12.8830    1.0330   23.0360 C   0  0  0  0  0  0  0  0  0  0  0  0
   13.4770    0.0205   22.8270 C   0  0  0  0  0  0  0  0  0  0  0  0
   12.9085   -1.2580   22.1895 C   0  0  0  0  0  0  0  0  0  0  0  0
   11.5595   -1.4700   22.9230 C   0  0  0  0  0  0  0  0  0  0  0  0
   11.0490   -0.3560   23.5650 N   0  0  0  0  0  0  0  0  0  0  0  0
   11.8270    0.7615   23.5485 C   0  0  0  0  0  0  0  0  0  0  0  0
   10.9030    2.1690   23.8360 C   0  0  0  0  0  0  0  0  0  0  0  0
    9.7600   -0.3390   24.2980 C   0  0  0  0  0  0  0  0  0  0  0  0
    8.6870   -1.0390   23.0120 C   0  0  0  0  0  0  0  0  0  0  0  0
    7.3150   -0.3490   23.3420 C   0  0  0  0  0  0  0  0  0  0  0  0
    7.6990    1.1640   23.7480 C   0  0  0  0  0  0  0  0  0  0  0  0
    9.0240    1.2620   23.5980 C   0  0  2  0  0  0  0  0  0  0  0  0
    9.4080    1.9150   22.2270 C   0  0  0  0  0  0  0  0  0  0  0  0
    9.0780    1.4060   21.1760 O   0  0  0  0  0  0  0  0  0  0  0  0
   11.5590    6.4362   22.4673 H   0  0  0  0  0  0  0  0  0  0  0  0
   12.2028    6.0368   22.7920 H   0  0  0  0  0  0  0  0  0  0  0  0
   12.8383    3.9457   23.8062 H   0  0  0  0  0  0  0  0  0  0  0  0
   12.8485    4.2414   22.0864 H   0  0  0  0  0  0  0  0  0  0  0  0
   14.5112    2.3753   23.0384 H   0  0  0  0  0  0  0  0  0  0  0  0
   13.6814    2.1799   21.5058 H   0  0  0  0  0  0  0  0  0  0  0  0
   12.3056    0.8548   21.6645 H   0  0  0  0  0  0  0  0  0  0  0  0
   14.5159    0.1727   22.2089 H   0  0  0  0  0  0  0  0  0  0  0  0
   14.0570   -0.4357   23.7987 H   0  0  0  0  0  0  0  0  0  0  0  0
   13.5526   -2.0768   22.3844 H   0  0  0  0  0  0  0  0  0  0  0  0
   12.7405   -1.1112   21.1529 H   0  0  0  0  0  0  0  0  0  0  0  0
   11.7239   -2.3328   23.6212 H   0  0  0  0  0  0  0  0  0  0  0  0
   10.8406   -1.8608   22.1600 H   0  0  0  0  0  0  0  0  0  0  0  0
   12.2451    0.5593   24.6664 H   0  0  0  0  0  0  0  0  0  0  0  0
    9.8445    1.7747   24.1666 H   0  0  0  0  0  0  0  0  0  0  0  0
   11.1778    2.5848   24.8979 H   0  0  0  0  0  0  0  0  0  0  0  0
   10.0205    0.1208   22.2708 H   0  0  0  0  0  0  0  0  0  0  0  0
    8.6546   -2.0756   23.1966 H   0  0  0  0  0  0  0  0  0  0  0  0
    9.1102   -0.7645   22.0904 H   0  0  0  0  0  0  0  0  0  0  0  0
    6.8028   -0.8411   24.1459 H   0  0  0  0  0  0  0  0  0  0  0  0
    6.6935   -0.3168   22.4634 H   0  0  0  0  0  0  0  0  0  0  0  0
    7.2983    1.3125   24.7752 H   0  0  0  0  0  0  0  0  0  0  0  0
    7.0528    1.8010   23.0993 H   0  0  0  0  0  0  0  0  0  0  0  0
    9.4542    2.0051   24.3791 H   0  0  0  0  0  0  0  0  0  0  0  0
  1  2  1  0
  2  3  2  0
  2  4  2  0
  2  5  1  0
  5  6  1  0
  6  7  1  0
  7  8  1  0
  8  9  1  0
  9 10  1  0
 10 11  1  0
 11 12  1  0
 12 13  1  0
 13 14  1  0
 12 15  1  0
 15 16  1  0
 16 17  1  0
 17 18  1  0
 18 19  1  0
 19 20  1  0
 20 21  2  0
 14  5  1  0
 19 15  1  0
 20  5  1  0
 13  8  1  0
  1 22  1  0
  1 23  1  0
  6 24  1  0
  6 25  1  0
  7 26  1  0
  7 27  1  0
  8 28  1  0
  9 29  1  0
  9 30  1  0
 10 31  1  0
 10 32  1  0
 11 33  1  0
 11 34  1  0
 13 35  1  0
 14 36  1  0
 14 37  1  0
 15 38  1  0
 16 39  1  0
 16 40  1  0
 17 41  1  0
 17 42  1  0
 18 43  1  0
 18 44  1  0
 19 45  1  1
M  END
