
     RDKit          3D

 47 51  0  0  0  0  0  0  0  0999 V2000
    8.6330   -1.0860   24.6800 C   0  0  0  0  0  0  0  0  0  0  0  0
    9.4810   -0.8430   23.5030 C   0  0  2  0  0  0  0  0  0  0  0  0
   10.8360   -1.3510   23.6000 C   0  0  0  0  0  0  0  0  0  0  0  0
   11.6450   -0.7400   22.5900 N   0  0  0  0  0  0  0  0  0  0  0  0
   13.1390   -0.5480   22.5170 C   0  0  0  0  0  0  0  0  0  0  0  0
   12.7570    0.9080   22.6920 C   0  0  0  0  0  0  0  0  0  0  0  0
   13.2200    2.1810   22.7620 C   0  0  0  0  0  0  0  0  0  0  0  0
   12.1610    3.2490   23.0410 C   0  0  0  0  0  0  0  0  0  0  0  0
   10.8020    2.8640   23.1900 C   0  0  0  0  0  0  0  0  0  0  0  0
    9.7700    4.2610   23.5920 S   0  0  2  0  0  0  0  0  0  0  0  0
   10.8490    5.5420   23.3500 N   0  0  0  0  0  0  0  0  0  0  0  0
    9.5320    4.2750   25.0340 O   0  0  0  0  0  0  0  0  0  0  0  0
    8.7050    4.4210   22.6490 O   0  0  0  0  0  0  0  0  0  0  0  0
   10.3880    1.3700   23.0180 C   0  0  0  0  0  0  0  0  0  0  0  0
   11.5320    0.5590   22.7800 C   0  0  0  0  0  0  0  0  0  0  0  0
    9.2410    0.6050   23.0440 N   0  0  0  0  0  0  0  0  0  0  0  0
    8.5900    0.5710   21.7640 C   0  0  0  0  0  0  0  0  0  0  0  0
    8.5780    1.7300   20.9230 O   0  0  0  0  0  0  0  0  0  0  0  0
    7.9380   -0.5660   21.2390 C   0  0  0  0  0  0  0  0  0  0  0  0
    7.2240   -0.2670   20.0860 C   0  0  0  0  0  0  0  0  0  0  0  0
    7.3670   -0.5700   18.7700 C   0  0  0  0  0  0  0  0  0  0  0  0
    6.3060    0.0470   17.9530 N   0  0  0  0  0  0  0  0  0  0  0  0
    5.4740    0.7390   18.8140 C   0  0  0  0  0  0  0  0  0  0  0  0
    4.3810    1.4450   18.5140 N   0  0  0  0  0  0  0  0  0  0  0  0
    3.8000    1.9890   19.6220 C   0  0  0  0  0  0  0  0  0  0  0  0
    4.2470    1.8670   20.9470 C   0  0  0  0  0  0  0  0  0  0  0  0
    5.3950    1.1310   21.2240 C   0  0  0  0  0  0  0  0  0  0  0  0
    5.9780    0.5770   20.0950 C   0  0  0  0  0  0  0  0  0  0  0  0
    9.2370   -1.1830   25.5460 H   0  0  0  0  0  0  0  0  0  0  0  0
    7.9570   -0.2380   24.8260 H   0  0  0  0  0  0  0  0  0  0  0  0
    8.0590   -2.0040   24.5390 H   0  0  0  0  0  0  0  0  0  0  0  0
    9.0200   -1.4170   22.6930 H   0  0  0  0  0  0  0  0  0  0  0  0
   10.8900   -2.4420   23.4860 H   0  0  0  0  0  0  0  0  0  0  0  0
   11.2540   -1.0900   24.5770 H   0  0  0  0  0  0  0  0  0  0  0  0
   13.6800   -0.9960   23.3600 H   0  0  0  0  0  0  0  0  0  0  0  0
   13.5540   -0.8130   21.5390 H   0  0  0  0  0  0  0  0  0  0  0  0
   14.2190    2.5170   22.6500 H   0  0  0  0  0  0  0  0  0  0  0  0
   12.4510    4.2960   23.1350 H   0  0  0  0  0  0  0  0  0  0  0  0
   11.1020    5.9410   24.2560 H   0  0  0  0  0  0  0  0  0  0  0  0
   10.5070    6.2320   22.6700 H   0  0  0  0  0  0  0  0  0  0  0  0
    7.3220   -0.9200   22.0620 H   0  0  0  0  0  0  0  0  0  0  0  0
    8.6150   -1.4050   21.0880 H   0  0  0  0  0  0  0  0  0  0  0  0
    8.1990   -1.1940   18.4600 H   0  0  0  0  0  0  0  0  0  0  0  0
    6.2150   -0.0310   16.9360 H   0  0  0  0  0  0  0  0  0  0  0  0
    2.9050    2.5680   19.4050 H   0  0  0  0  0  0  0  0  0  0  0  0
    3.6870    2.3550   21.7390 H   0  0  0  0  0  0  0  0  0  0  0  0
    5.7780    1.0120   22.2290 H   0  0  0  0  0  0  0  0  0  0  0  0
  1  2  1  0
  2  3  1  0
  3  4  1  0
  4  5  1  0
  5  6  1  0
  6  7  1  0
  7  8  2  0
  8  9  1  0
  9 10  1  0
 10 11  1  1
 10 12  2  0
 10 13  2  0
  9 14  2  0
  4 15  1  0
  6 15  2  0
 14 15  1  0
  2 16  1  0
 14 16  1  0
 16 17  1  0
 17 18  2  0
 17 19  1  0
 19 20  1  0
 20 21  2  0
 21 22  1  0
 22 23  1  0
 23 24  1  0
 24 25  2  0
 25 26  1  0
 26 27  2  0
 20 28  1  0
 23 28  2  0
 27 28  1  0
  1 29  1  0
  1 30  1  0
  1 31  1  0
  2 32  1  6
  3 33  1  0
  3 34  1  0
  5 35  1  0
  5 36  1  0
  7 37  1  0
  8 38  1  0
 11 39  1  0
 11 40  1  0
 19 41  1  0
 19 42  1  0
 21 43  1  0
 22 44  1  0
 25 45  1  0
 26 46  1  0
 27 47  1  0
M  END
