
     RDKit          3D

 29 30  0  0  0  0  0  0  0  0999 V2000
    9.6920   -0.2890   25.2030 C   0  0  0  0  0  0  0  0  0  0  0  0
   10.4680   -0.2520   23.9750 N   0  0  0  0  0  0  0  0  0  0  0  0
   11.1880   -1.5400   23.7370 C   0  0  0  0  0  0  0  0  0  0  0  0
   12.1820   -1.3830   22.7680 C   0  0  0  0  0  0  0  0  0  0  0  0
   13.1160   -0.2120   22.9790 C   0  0  0  0  0  0  0  0  0  0  0  0
   12.3770    1.0710   23.1630 C   0  0  0  0  0  0  0  0  0  0  0  0
   12.9560    2.2960   22.8630 C   0  0  0  0  0  0  0  0  0  0  0  0
   12.2080    3.6210   23.0340 C   0  0  0  0  0  0  0  0  0  0  0  0
   10.8970    3.5650   23.5250 C   0  0  0  0  0  0  0  0  0  0  0  0
   10.0000    5.0920   23.7480 S   0  0  1  0  0  0  0  0  0  0  0  0
   11.2290    6.2290   23.5640 N   0  0  0  0  0  0  0  0  0  0  0  0
    9.1320    5.2870   22.6280 O   0  0  0  0  0  0  0  0  0  0  0  0
    9.4540    5.2290   25.0820 O   0  0  0  0  0  0  0  0  0  0  0  0
   10.2760    2.2460   23.8550 C   0  0  0  0  0  0  0  0  0  0  0  0
   11.0760    0.9620   23.6540 C   0  0  0  0  0  0  0  0  0  0  0  0
    9.1800    0.6640   25.3540 H   0  0  0  0  0  0  0  0  0  0  0  0
   10.3280   -0.4570   26.0720 H   0  0  0  0  0  0  0  0  0  0  0  0
    8.9410   -1.0780   25.1420 H   0  0  0  0  0  0  0  0  0  0  0  0
   11.6600   -1.8830   24.6690 H   0  0  0  0  0  0  0  0  0  0  0  0
   10.4800   -2.3070   23.4100 H   0  0  0  0  0  0  0  0  0  0  0  0
   11.7090   -1.3290   21.7810 H   0  0  0  0  0  0  0  0  0  0  0  0
   12.7940   -2.2970   22.7340 H   0  0  0  0  0  0  0  0  0  0  0  0
   13.7250   -0.4000   23.8620 H   0  0  0  0  0  0  0  0  0  0  0  0
   13.8040   -0.1180   22.1360 H   0  0  0  0  0  0  0  0  0  0  0  0
   13.9670    2.3030   22.5040 H   0  0  0  0  0  0  0  0  0  0  0  0
   12.6630    4.5840   22.7960 H   0  0  0  0  0  0  0  0  0  0  0  0
   11.0340    7.1080   24.0450 H   0  0  0  0  0  0  0  0  0  0  0  0
   12.1020    5.8200   23.8640 H   0  0  0  0  0  0  0  0  0  0  0  0
    9.2540    2.1650   24.2440 H   0  0  0  0  0  0  0  0  0  0  0  0
  1  2  1  0
  2  3  1  0
  3  4  1  0
  4  5  1  0
  5  6  1  0
  6  7  1  0
  7  8  2  0
  8  9  1  0
  9 10  1  0
 10 11  1  6
 10 12  2  0
 10 13  2  0
  9 14  2  0
  2 15  1  0
  6 15  2  0
 14 15  1  0
  1 16  1  0
  1 17  1  0
  1 18  1  0
  3 19  1  0
  3 20  1  0
  4 21  1  0
  4 22  1  0
  5 23  1  0
  5 24  1  0
  7 25  1  0
  8 26  1  0
 11 27  1  0
 11 28  1  0
 14 29  1  0
M  END
