LIG
     RDKit          3D

 44 46  0  0  0  0  0  0  0  0999 V2000
   13.9850   -1.7380   20.5810 N   0  0  0  0  0  0  0  0  0  0  0  0
   13.4710   -0.7995   22.0925 C   0  0  0  0  0  0  0  0  0  0  0  0
   12.5755   -1.0900   22.4610 C   0  0  0  0  0  0  0  0  0  0  0  0
   11.4925   -1.4790   23.2070 C   0  0  0  0  0  0  0  0  0  0  0  0
   10.1785   -0.6000   24.2985 C   0  0  0  0  0  0  0  0  0  0  0  0
   10.9105    0.0495   24.1380 C   0  0  0  0  0  0  0  0  0  0  0  0
    9.8330    1.0540   25.2470 C   0  0  0  0  0  0  0  0  0  0  0  0
    8.4500    0.7150   24.9220 N   0  0  0  0  0  0  0  0  0  0  0  0
    7.7030    1.4680   24.0150 C   0  0  0  0  0  0  0  0  0  0  0  0
    8.1720    2.4660   23.4420 O   0  0  0  0  0  0  0  0  0  0  0  0
    6.3360    0.9640   23.8050 N   0  0  0  0  0  0  0  0  0  0  0  0
    5.6140    1.6470   22.6990 C   0  0  0  0  0  0  0  0  0  0  0  0
    4.2210    1.0320   22.4570 C   0  0  0  0  0  0  0  0  0  0  0  0
    3.4750    1.0690   23.6570 O   0  0  0  0  0  0  0  0  0  0  0  0
    4.0500    0.3480   24.7320 C   0  0  0  0  0  0  0  0  0  0  0  0
    5.4800    0.8530   25.0320 C   0  0  0  0  0  0  0  0  0  0  0  0
   11.7685    1.0345   23.7405 C   0  0  0  0  0  0  0  0  0  0  0  0
   10.9030    2.1690   23.8360 C   0  0  0  0  0  0  0  0  0  0  0  0
   11.4520    3.3830   23.4380 C   0  0  0  0  0  0  0  0  0  0  0  0
   10.4990    4.8830   23.7330 S   0  0  0  0  0  6  0  0  0  0  0  0
   11.4660    6.2570   23.4610 N   0  0  0  0  0  0  0  0  0  0  0  0
    9.2550    4.9160   22.9600 O   0  0  0  0  0  0  0  0  0  0  0  0
    9.9890    4.8060   25.0960 O   0  0  0  0  0  0  0  0  0  0  0  0
   12.7210    3.4490   22.8300 C   0  0  0  0  0  0  0  0  0  0  0  0
   13.4330    2.2640   22.6290 C   0  0  0  0  0  0  0  0  0  0  0  0
   12.8260    0.7730   22.9755 C   0  0  0  0  0  0  0  0  0  0  0  0
   11.1397   -2.5897   23.3198 H   0  0  0  0  0  0  0  0  0  0  0  0
    9.5374   -1.2975   24.4041 H   0  0  0  0  0  0  0  0  0  0  0  0
   10.0994    0.8354   26.2161 H   0  0  0  0  0  0  0  0  0  0  0  0
   10.0833    2.0262   24.9313 H   0  0  0  0  0  0  0  0  0  0  0  0
    8.2623   -0.2767   24.8540 H   0  0  0  0  0  0  0  0  0  0  0  0
    6.2071    1.5995   21.7808 H   0  0  0  0  0  0  0  0  0  0  0  0
    5.5145    2.6957   23.0007 H   0  0  0  0  0  0  0  0  0  0  0  0
    3.6948    1.6094   21.7048 H   0  0  0  0  0  0  0  0  0  0  0  0
    4.3060    0.0022   22.1227 H   0  0  0  0  0  0  0  0  0  0  0  0
    4.0761   -0.7014   24.4768 H   0  0  0  0  0  0  0  0  0  0  0  0
    3.4286    0.4965   25.6065 H   0  0  0  0  0  0  0  0  0  0  0  0
    6.0017    0.1572   25.7078 H   0  0  0  0  0  0  0  0  0  0  0  0
    5.4419    1.8296   25.5373 H   0  0  0  0  0  0  0  0  0  0  0  0
    9.9279    2.1202   24.2037 H   0  0  0  0  0  0  0  0  0  0  0  0
   11.1040    6.8644   22.7267 H   0  0  0  0  0  0  0  0  0  0  0  0
   10.8862    7.0894   23.5530 H   0  0  0  0  0  0  0  0  0  0  0  0
   13.1417    4.4051   22.5329 H   0  0  0  0  0  0  0  0  0  0  0  0
   14.4232    2.2621   22.2341 H   0  0  0  0  0  0  0  0  0  0  0  0
  1  2  3  0
  2  3  1  0
  3  4  4  0
  4  5  4  0
  5  6  4  0
  6  7  1  0
  7  8  1  0
  8  9  1  0
  9 10  2  0
  9 11  1  0
 11 12  1  0
 12 13  1  0
 13 14  1  0
 14 15  1  0
 15 16  1  0
  6 17  4  0
 17 18  4  0
 18 19  4  0
 19 20  1  0
 20 21  1  0
 20 22  2  0
 20 23  2  0
 19 24  4  0
 24 25  4  0
 25 26  4  0
 26  3  4  0
 16 11  1  0
 26 17  4  0
  4 27  1  0
  5 28  1  0
  7 29  1  0
  7 30  1  0
  8 31  1  0
 12 32  1  0
 12 33  1  0
 13 34  1  0
 13 35  1  0
 15 36  1  0
 15 37  1  0
 16 38  1  0
 16 39  1  0
 18 40  1  0
 21 41  1  0
 21 42  1  0
 24 43  1  0
 25 44  1  0
M  END
