LIG
     RDKit          3D

 29 30  0  0  0  0  0  0  0  0999 V2000
    9.9150   -0.3810   24.9080 C   0  0  0  0  0  0  0  0  0  0  0  0
   11.0650   -0.3310   24.0360 N   0  0  0  0  0  0  0  0  0  0  0  0
   11.7030   -1.5600   23.6680 C   0  0  0  0  0  0  0  0  0  0  0  0
   12.7120   -1.4530   22.5630 C   0  0  0  0  0  0  0  0  0  0  0  0
   13.4625   -0.4565   22.7445 C   0  0  0  0  0  0  0  0  0  0  0  0
   12.6690    1.0845   23.0835 C   0  0  0  0  0  0  0  0  0  0  0  0
   13.2905    2.2745   22.6970 C   0  0  0  0  0  0  0  0  0  0  0  0
   12.6520    3.4905   22.9280 C   0  0  0  0  0  0  0  0  0  0  0  0
   11.3935    3.5225   23.5460 C   0  0  0  0  0  0  0  0  0  0  0  0
   10.5835    5.0340   23.8340 S   0  0  0  0  0  6  0  0  0  0  0  0
   11.5095    6.2265   23.4615 N   0  0  0  0  0  0  0  0  0  0  0  0
    9.3035    5.0455   22.9575 O   0  0  0  0  0  0  0  0  0  0  0  0
   10.0890    5.0275   25.1785 O   0  0  0  0  0  0  0  0  0  0  0  0
   10.7850    2.3215   23.9305 C   0  0  0  0  0  0  0  0  0  0  0  0
   11.4170    1.0885   23.6990 C   0  0  0  0  0  0  0  0  0  0  0  0
    9.6446    0.6211   25.2702 H   0  0  0  0  0  0  0  0  0  0  0  0
   10.1515   -0.0019   25.9121 H   0  0  0  0  0  0  0  0  0  0  0  0
   10.1145   -0.9776   25.8084 H   0  0  0  0  0  0  0  0  0  0  0  0
   12.1697   -2.0351   24.5755 H   0  0  0  0  0  0  0  0  0  0  0  0
   10.9263   -2.3059   23.3503 H   0  0  0  0  0  0  0  0  0  0  0  0
   12.1138   -1.4490   21.5916 H   0  0  0  0  0  0  0  0  0  0  0  0
   13.2382   -2.4611   22.5047 H   0  0  0  0  0  0  0  0  0  0  0  0
   14.1786   -0.4609   23.6332 H   0  0  0  0  0  0  0  0  0  0  0  0
   14.1420   -0.1356   21.8917 H   0  0  0  0  0  0  0  0  0  0  0  0
   14.2618    2.2659   22.2193 H   0  0  0  0  0  0  0  0  0  0  0  0
   13.1407    4.4216   22.6202 H   0  0  0  0  0  0  0  0  0  0  0  0
   11.0630    6.8686   22.7699 H   0  0  0  0  0  0  0  0  0  0  0  0
   11.7100    6.3572   22.4421 H   0  0  0  0  0  0  0  0  0  0  0  0
    9.8145    2.3681   24.4091 H   0  0  0  0  0  0  0  0  0  0  0  0
  1  2  1  0
  2  3  1  0
  3  4  1  0
  4  5  1  0
  5  6  1  0
  6  7  4  0
  7  8  4  0
  8  9  4  0
  9 10  1  0
 10 11  1  0
 10 12  2  0
 10 13  2  0
  9 14  4  0
 14 15  4  0
 15  2  1  0
 15  6  4  0
  1 16  1  0
  1 17  1  0
  1 18  1  0
  3 19  1  0
  3 20  1  0
  4 21  1  0
  4 22  1  0
  5 23  1  0
  5 24  1  0
  7 25  1  0
  8 26  1  0
 11 27  1  0
 11 28  1  0
 14 29  1  0
M  END
