LIG
     RDKit          3D

 43 44  0  0  0  0  0  0  0  0999 V2000
    6.4340   -4.9520   26.5780 C   0  0  0  0  0  0  0  0  0  0  0  0
    8.0950   -4.3580   26.1540 S   0  0  0  0  0  6  0  0  0  0  0  0
    9.0830   -5.4410   26.1700 O   0  0  0  0  0  0  0  0  0  0  0  0
    8.6390   -3.5100   27.2010 O   0  0  0  0  0  0  0  0  0  0  0  0
    8.0610   -3.5350   24.6620 N   0  0  0  0  0  0  0  0  0  0  0  0
    9.3140   -3.0270   24.1660 C   0  0  0  0  0  0  0  0  0  0  0  0
    9.2100   -1.7480   23.3470 C   0  0  0  0  0  0  0  0  0  0  0  0
   10.2595   -0.7615   24.1505 C   0  0  0  0  0  0  0  0  0  0  0  0
   10.9870   -0.2135   24.1450 N   0  0  0  0  0  0  0  0  0  0  0  0
   11.6430   -1.6265   23.1290 C   0  0  0  0  0  0  0  0  0  0  0  0
   12.7915   -1.3250   22.5915 C   0  0  0  0  0  0  0  0  0  0  0  0
   13.4205   -0.2205   23.1375 C   0  0  0  0  0  0  0  0  0  0  0  0
   12.8830    1.0330   23.0360 C   0  0  0  0  0  0  0  0  0  0  0  0
   13.4330    2.2640   22.6290 C   0  0  0  0  0  0  0  0  0  0  0  0
   12.7210    3.4490   22.8300 C   0  0  0  0  0  0  0  0  0  0  0  0
   11.4520    3.3830   23.4380 C   0  0  0  0  0  0  0  0  0  0  0  0
   10.4990    4.8830   23.7330 S   0  0  0  0  0  6  0  0  0  0  0  0
   11.4660    6.2570   23.4610 N   0  0  0  0  0  0  0  0  0  0  0  0
    9.2550    4.9160   22.9600 O   0  0  0  0  0  0  0  0  0  0  0  0
    9.9890    4.8060   25.0960 O   0  0  0  0  0  0  0  0  0  0  0  0
   10.9030    2.1690   23.8360 C   0  0  0  0  0  0  0  0  0  0  0  0
   11.9090    0.6925   23.9535 C   0  0  0  0  0  0  0  0  0  0  0  0
    6.2065   -4.6440   27.5939 H   0  0  0  0  0  0  0  0  0  0  0  0
    6.4231   -6.0325   26.4664 H   0  0  0  0  0  0  0  0  0  0  0  0
    6.5439   -5.6227   27.4269 H   0  0  0  0  0  0  0  0  0  0  0  0
    7.3906   -3.9265   24.0186 H   0  0  0  0  0  0  0  0  0  0  0  0
   10.0233   -2.8514   25.0194 H   0  0  0  0  0  0  0  0  0  0  0  0
    9.8084   -3.8150   23.5371 H   0  0  0  0  0  0  0  0  0  0  0  0
    9.5573   -1.8779   22.3709 H   0  0  0  0  0  0  0  0  0  0  0  0
    8.2637   -1.3045   23.4054 H   0  0  0  0  0  0  0  0  0  0  0  0
    9.2504   -0.2100   24.8589 H   0  0  0  0  0  0  0  0  0  0  0  0
   10.2700   -1.5605   25.2553 H   0  0  0  0  0  0  0  0  0  0  0  0
   11.6018   -2.3976   23.9158 H   0  0  0  0  0  0  0  0  0  0  0  0
   10.7334   -1.7716   22.5122 H   0  0  0  0  0  0  0  0  0  0  0  0
   12.7155   -1.1825   21.4408 H   0  0  0  0  0  0  0  0  0  0  0  0
   13.5273   -2.2257   22.6135 H   0  0  0  0  0  0  0  0  0  0  0  0
   14.5258   -0.1712   22.7466 H   0  0  0  0  0  0  0  0  0  0  0  0
   13.6543   -0.4577   24.2630 H   0  0  0  0  0  0  0  0  0  0  0  0
   14.4147    2.3045   22.1726 H   0  0  0  0  0  0  0  0  0  0  0  0
   13.1467    4.3993   22.5295 H   0  0  0  0  0  0  0  0  0  0  0  0
   10.9158    7.0971   23.3037 H   0  0  0  0  0  0  0  0  0  0  0  0
   11.2011    6.9712   24.1381 H   0  0  0  0  0  0  0  0  0  0  0  0
    9.9266    1.9706   24.1041 H   0  0  0  0  0  0  0  0  0  0  0  0
  1  2  1  0
  2  3  2  0
  2  4  2  0
  2  5  1  0
  5  6  1  0
  6  7  1  0
  7  8  1  0
  8  9  1  0
  9 10  1  0
 10 11  1  0
 11 12  1  0
 12 13  1  0
 13 14  4  0
 14 15  4  0
 15 16  4  0
 16 17  1  0
 17 18  1  0
 17 19  2  0
 17 20  2  0
 16 21  4  0
 21 22  4  0
 22  9  1  0
 22 13  4  0
  1 23  1  0
  1 24  1  0
  1 25  1  0
  5 26  1  0
  6 27  1  0
  6 28  1  0
  7 29  1  0
  7 30  1  0
  8 31  1  0
  8 32  1  0
 10 33  1  0
 10 34  1  0
 11 35  1  0
 11 36  1  0
 12 37  1  0
 12 38  1  0
 14 39  1  0
 15 40  1  0
 18 41  1  0
 18 42  1  0
 21 43  1  0
M  END
