LIG
     RDKit          3D

 54 57  0  0  0  0  0  0  0  0999 V2000
    5.5720    3.8030   30.8520 C   0  0  0  0  0  0  0  0  0  0  0  0
    6.0790    2.6860   29.9860 C   0  0  0  0  0  0  0  0  0  0  0  0
    7.2890    2.7860   29.3270 C   0  0  0  0  0  0  0  0  0  0  0  0
    7.7660    1.7610   28.5270 C   0  0  0  0  0  0  0  0  0  0  0  0
    7.0230    0.5950   28.3850 C   0  0  0  0  0  0  0  0  0  0  0  0
    7.4530   -0.4560   27.6150 O   0  0  0  0  0  0  0  0  0  0  0  0
    8.3750   -0.1600   26.5780 C   0  0  0  0  0  0  0  0  0  0  0  0
    8.7900   -1.4080   25.8100 C   0  0  0  0  0  0  0  0  0  0  0  0
    7.9610   -2.2960   25.6070 O   0  0  0  0  0  0  0  0  0  0  0  0
    9.9920   -0.9290   25.1440 N   0  0  0  0  0  0  0  0  0  0  0  0
   10.6760   -2.6770   24.8000 C   0  0  0  0  0  0  0  0  0  0  0  0
   11.4450   -2.3540   23.5370 C   0  0  0  0  0  0  0  0  0  0  0  0
   12.0640   -1.4255   23.7165 N   0  0  0  0  0  0  0  0  0  0  0  0
   12.9650   -1.2405   22.5635 C   0  0  0  0  0  0  0  0  0  0  0  0
   13.6620   -0.2980   22.8050 C   0  0  0  0  0  0  0  0  0  0  0  0
   12.8830    1.0330   23.0360 C   0  0  0  0  0  0  0  0  0  0  0  0
   13.4330    2.2640   22.6290 C   0  0  0  0  0  0  0  0  0  0  0  0
   12.7210    3.4490   22.8300 C   0  0  0  0  0  0  0  0  0  0  0  0
   11.4520    3.3830   23.4380 C   0  0  0  0  0  0  0  0  0  0  0  0
   10.4990    4.8830   23.7330 S   0  0  0  0  0  6  0  0  0  0  0  0
   11.4660    6.2570   23.4610 N   0  0  0  0  0  0  0  0  0  0  0  0
    9.2550    4.9160   22.9600 O   0  0  0  0  0  0  0  0  0  0  0  0
    9.9890    4.8060   25.0960 O   0  0  0  0  0  0  0  0  0  0  0  0
   10.9030    2.1690   23.8360 C   0  0  0  0  0  0  0  0  0  0  0  0
   11.6200    0.9750   23.6290 C   0  0  0  0  0  0  0  0  0  0  0  0
   11.3900   -0.2110   24.1170 C   0  0  0  0  0  0  0  0  0  0  0  0
   11.0110   -0.3620   25.5050 C   0  0  0  0  0  0  0  0  0  0  0  0
    5.8090    0.4760   29.0440 C   0  0  0  0  0  0  0  0  0  0  0  0
    5.3530    1.5210   29.8320 C   0  0  0  0  0  0  0  0  0  0  0  0
    4.4821    3.8826   30.7872 H   0  0  0  0  0  0  0  0  0  0  0  0
    4.8932    3.4218   31.6217 H   0  0  0  0  0  0  0  0  0  0  0  0
    5.0386    4.5367   30.2405 H   0  0  0  0  0  0  0  0  0  0  0  0
    7.8937    3.6981   29.4327 H   0  0  0  0  0  0  0  0  0  0  0  0
    8.7188    1.8991   28.0288 H   0  0  0  0  0  0  0  0  0  0  0  0
    7.9088    0.5328   25.8611 H   0  0  0  0  0  0  0  0  0  0  0  0
    9.2812    0.2826   27.0180 H   0  0  0  0  0  0  0  0  0  0  0  0
   11.2243   -2.7979   25.6340 H   0  0  0  0  0  0  0  0  0  0  0  0
    9.7676   -3.1287   24.6968 H   0  0  0  0  0  0  0  0  0  0  0  0
   12.0120   -3.2964   23.3235 H   0  0  0  0  0  0  0  0  0  0  0  0
   10.6732   -2.3492   22.7226 H   0  0  0  0  0  0  0  0  0  0  0  0
   13.4883   -2.2328   22.4403 H   0  0  0  0  0  0  0  0  0  0  0  0
   12.3037   -1.2006   21.6468 H   0  0  0  0  0  0  0  0  0  0  0  0
   14.4379   -0.0044   22.0171 H   0  0  0  0  0  0  0  0  0  0  0  0
   14.3072   -0.3428   23.7521 H   0  0  0  0  0  0  0  0  0  0  0  0
   14.4160    2.3012   22.1738 H   0  0  0  0  0  0  0  0  0  0  0  0
   13.1492    4.3973   22.5366 H   0  0  0  0  0  0  0  0  0  0  0  0
   10.9398    7.0519   23.1109 H   0  0  0  0  0  0  0  0  0  0  0  0
   11.0648    7.0397   23.9743 H   0  0  0  0  0  0  0  0  0  0  0  0
    9.9258    2.1416   24.3152 H   0  0  0  0  0  0  0  0  0  0  0  0
   12.8227   -0.0227   24.7868 H   0  0  0  0  0  0  0  0  0  0  0  0
   10.8510    0.5731   25.9551 H   0  0  0  0  0  0  0  0  0  0  0  0
   11.7228   -0.9532   26.0023 H   0  0  0  0  0  0  0  0  0  0  0  0
    5.2226   -0.4289   28.9445 H   0  0  0  0  0  0  0  0  0  0  0  0
    4.3824    1.4061   30.3420 H   0  0  0  0  0  0  0  0  0  0  0  0
  1  2  1  0
  2  3  4  0
  3  4  4  0
  4  5  4  0
  5  6  1  0
  6  7  1  0
  7  8  1  0
  8  9  2  0
  8 10  1  0
 10 11  1  0
 11 12  1  0
 12 13  1  0
 13 14  1  0
 14 15  1  0
 15 16  1  0
 16 17  4  0
 17 18  4  0
 18 19  4  0
 19 20  1  0
 20 21  1  0
 20 22  2  0
 20 23  2  0
 19 24  4  0
 24 25  4  0
 25 26  1  0
 26 27  1  0
  5 28  4  0
 28 29  4  0
 29  2  4  0
 27 10  1  0
 26 13  1  0
 25 16  4  0
  1 30  1  0
  1 31  1  0
  1 32  1  0
  3 33  1  0
  4 34  1  0
  7 35  1  0
  7 36  1  0
 11 37  1  0
 11 38  1  0
 12 39  1  0
 12 40  1  0
 14 41  1  0
 14 42  1  0
 15 43  1  0
 15 44  1  0
 17 45  1  0
 18 46  1  0
 21 47  1  0
 21 48  1  0
 24 49  1  0
 26 50  1  0
 27 51  1  0
 27 52  1  0
 28 53  1  0
 29 54  1  0
M  END
