
     RDKit          3D

 39 41  0  0  0  0  0  0  0  0999 V2000
    5.5230    3.6470   30.7890 C   0  0  0  0  0  0  0  0  0  0  0  0
    6.0760    2.5820   29.8770 C   0  0  0  0  0  0  0  0  0  0  0  0
    5.5470    1.2850   29.9560 C   0  0  0  0  0  0  0  0  0  0  0  0
    6.1020    0.1980   29.0400 C   0  0  0  0  0  0  0  0  0  0  0  0
    7.1930    0.5940   28.0970 C   0  0  0  0  0  0  0  0  0  0  0  0
    7.6820   -0.4050   27.2820 O   0  0  0  0  0  0  0  0  0  0  0  0
    8.1510   -0.0880   25.9530 C   0  0  1  0  0  0  0  0  0  0  0  0
    9.5720    0.3380   25.8840 N   0  0  0  0  0  0  0  0  0  0  0  0
   10.1350   -0.1700   24.6220 C   0  0  1  0  0  0  0  0  0  0  0  0
   11.5490   -0.2790   24.6720 C   0  0  0  0  0  0  0  0  0  0  0  0
   12.1350   -1.0720   23.7440 N   0  0  0  0  0  0  0  0  0  0  0  0
   12.3840   -0.6290   22.4240 C   0  0  0  0  0  0  0  0  0  0  0  0
   13.5040   -1.2540   21.6270 C   0  0  0  0  0  0  0  0  0  0  0  0
   13.0540   -2.4430   20.9050 N   0  0  0  0  0  0  0  0  0  0  0  0
   11.4200   -2.3330   23.7180 C   0  0  0  0  0  0  0  0  0  0  0  0
   10.0490   -2.4590   23.7990 C   0  0  0  0  0  0  0  0  0  0  0  0
    9.5390   -1.3790   24.5250 N   0  0  0  0  0  0  0  0  0  0  0  0
    8.2060   -1.3780   25.1350 C   0  0  0  0  0  0  0  0  0  0  0  0
    7.3480   -2.2370   25.0230 O   0  0  0  0  0  0  0  0  0  0  0  0
    7.6380    1.9100   28.1020 C   0  0  0  0  0  0  0  0  0  0  0  0
    7.1040    2.8940   28.9690 C   0  0  0  0  0  0  0  0  0  0  0  0
    5.9430    3.5730   31.7980 H   0  0  0  0  0  0  0  0  0  0  0  0
    5.7790    4.6300   30.3850 H   0  0  0  0  0  0  0  0  0  0  0  0
    4.4390    3.5400   30.8460 H   0  0  0  0  0  0  0  0  0  0  0  0
    4.7550    1.0400   30.6540 H   0  0  0  0  0  0  0  0  0  0  0  0
    5.7920   -0.8410   28.9940 H   0  0  0  0  0  0  0  0  0  0  0  0
    7.4860    0.6110   25.4310 H   0  0  0  0  0  0  0  0  0  0  0  0
    9.5800    1.3650   25.8350 H   0  0  0  0  0  0  0  0  0  0  0  0
    9.7080    0.4390   23.8310 H   0  0  0  0  0  0  0  0  0  0  0  0
   11.8100   -0.6410   25.6530 H   0  0  0  0  0  0  0  0  0  0  0  0
   12.0530    0.6730   24.5280 H   0  0  0  0  0  0  0  0  0  0  0  0
   11.4520   -0.7370   21.8620 H   0  0  0  0  0  0  0  0  0  0  0  0
   12.5720    0.4530   22.4760 H   0  0  0  0  0  0  0  0  0  0  0  0
   11.8660   -2.8070   22.8450 H   0  0  0  0  0  0  0  0  0  0  0  0
   11.7690   -2.9100   24.5790 H   0  0  0  0  0  0  0  0  0  0  0  0
    9.6170   -2.4530   22.8000 H   0  0  0  0  0  0  0  0  0  0  0  0
    9.8000   -3.3850   24.3220 H   0  0  0  0  0  0  0  0  0  0  0  0
    8.4270    2.1760   27.4040 H   0  0  0  0  0  0  0  0  0  0  0  0
    7.4440    3.9190   28.9810 H   0  0  0  0  0  0  0  0  0  0  0  0
  1  2  1  0
  2  3  2  0
  3  4  1  0
  4  5  2  0
  5  6  1  0
  6  7  1  0
  7  8  1  0
  8  9  1  0
  9 10  1  0
 10 11  1  0
 11 12  1  0
 12 13  1  0
 13 14  3  0
 11 15  1  0
 15 16  1  0
  9 17  1  0
 16 17  1  0
  7 18  1  0
 17 18  1  0
 18 19  2  0
  5 20  1  0
  2 21  1  0
 20 21  2  0
  1 22  1  0
  1 23  1  0
  1 24  1  0
  3 25  1  0
  4 26  1  0
  7 27  1  6
  8 28  1  0
  9 29  1  6
 10 30  1  0
 10 31  1  0
 12 32  1  0
 12 33  1  0
 15 34  1  0
 15 35  1  0
 16 36  1  0
 16 37  1  0
 20 38  1  0
 21 39  1  0
M  END
