LIG
     RDKit          3D

 36 37  0  0  0  0  0  0  0  0999 V2000
    8.4100    0.0120   27.4140 C   0  0  0  0  0  0  0  0  0  0  0  0
    8.9670   -0.5390   26.1210 C   0  0  0  0  0  0  0  0  0  0  0  0
   10.1000    0.2670   25.7050 N   0  0  0  0  0  0  0  0  0  0  0  0
   10.9270   -0.1760   24.6090 C   0  0  0  0  0  0  0  0  0  0  0  0
   12.0070    0.5160   24.2990 N   0  0  0  0  0  0  0  0  0  0  0  0
   12.7880    0.1370   23.2890 C   0  0  0  0  0  0  0  0  0  0  0  0
   12.4940   -0.9910   22.5240 C   0  0  0  0  0  0  0  0  0  0  0  0
   13.3880   -1.4320   21.3740 C   0  0  0  0  0  0  0  0  0  0  0  0
   14.0700   -1.7370   20.5180 N   0  0  0  0  0  0  0  0  0  0  0  0
   11.3650   -1.7260   22.8360 C   0  0  0  0  0  0  0  0  0  0  0  0
   10.3025   -0.9675   23.2180 C   0  0  0  0  0  0  0  0  0  0  0  0
    9.1310   -0.0090   21.4750 C   0  0  0  0  0  0  0  0  0  0  0  0
    9.4550    1.0030   20.9560 O   0  0  0  0  0  0  0  0  0  0  0  0
    7.8860   -0.6570   21.1000 N   0  0  0  0  0  0  0  0  0  0  0  0
    7.0320   -0.0760   20.0760 C   0  0  0  0  0  0  0  0  0  0  0  0
    7.4050   -0.1450   18.7400 C   0  0  0  0  0  0  0  0  0  0  0  0
    6.6520    0.3680   17.7870 N   0  0  0  0  0  0  0  0  0  0  0  0
    5.5190    0.9700   18.0740 C   0  0  0  0  0  0  0  0  0  0  0  0
    5.0650    1.0940   19.3800 C   0  0  0  0  0  0  0  0  0  0  0  0
    5.8360    0.5550   20.4100 C   0  0  0  0  0  0  0  0  0  0  0  0
    5.3930    0.6630   21.8670 C   0  0  0  0  0  0  0  0  0  0  0  0
    8.6886    1.0642   27.5496 H   0  0  0  0  0  0  0  0  0  0  0  0
    9.2121    0.3592   28.0767 H   0  0  0  0  0  0  0  0  0  0  0  0
    8.7925   -0.5538   28.2711 H   0  0  0  0  0  0  0  0  0  0  0  0
    9.2716   -1.5813   26.2862 H   0  0  0  0  0  0  0  0  0  0  0  0
    8.1801   -0.5254   25.3545 H   0  0  0  0  0  0  0  0  0  0  0  0
    9.8336    1.2542   25.5024 H   0  0  0  0  0  0  0  0  0  0  0  0
   13.6515    0.7451   23.0969 H   0  0  0  0  0  0  0  0  0  0  0  0
   11.3569   -2.7866   22.8032 H   0  0  0  0  0  0  0  0  0  0  0  0
    7.6749   -1.5024   21.4720 H   0  0  0  0  0  0  0  0  0  0  0  0
    8.3117   -0.6042   18.4074 H   0  0  0  0  0  0  0  0  0  0  0  0
    4.9519    1.3674   17.2470 H   0  0  0  0  0  0  0  0  0  0  0  0
    4.1286    1.6026   19.5695 H   0  0  0  0  0  0  0  0  0  0  0  0
    5.6810    1.6354   22.2689 H   0  0  0  0  0  0  0  0  0  0  0  0
    6.2484    0.8123   22.5278 H   0  0  0  0  0  0  0  0  0  0  0  0
    5.8498   -0.1369   22.4513 H   0  0  0  0  0  0  0  0  0  0  0  0
  1  2  1  0
  2  3  1  0
  3  4  1  0
  4  5  4  0
  5  6  4  0
  6  7  4  0
  7  8  1  0
  8  9  3  0
  7 10  4  0
 10 11  4  0
 11 12  1  0
 12 13  2  0
 12 14  1  0
 14 15  1  0
 15 16  4  0
 16 17  4  0
 17 18  4  0
 18 19  4  0
 19 20  4  0
 20 21  1  0
 11  4  4  0
 20 15  4  0
  1 22  1  0
  1 23  1  0
  1 24  1  0
  2 25  1  0
  2 26  1  0
  3 27  1  0
  6 28  1  0
 10 29  1  0
 14 30  1  0
 16 31  1  0
 18 32  1  0
 19 33  1  0
 21 34  1  0
 21 35  1  0
 21 36  1  0
M  END
