
     RDKit          3D

 41 42  0  0  0  0  0  0  0  0999 V2000
    7.3810    0.3340   27.0490 C   0  0  0  0  0  0  0  0  0  0  0  0
    8.4960   -0.2920   26.2900 C   0  0  0  0  0  0  0  0  0  0  0  0
    8.9960    0.4360   25.2560 N   0  0  0  0  0  0  0  0  0  0  0  0
   10.1860   -0.0580   24.6300 C   0  0  1  0  0  0  0  0  0  0  0  0
   10.0080   -1.3280   23.8240 C   0  0  0  0  0  0  0  0  0  0  0  0
   11.3040   -1.6140   23.1670 C   0  0  0  0  0  0  0  0  0  0  0  0
   12.3750   -0.7330   23.2070 C   0  0  1  0  0  0  0  0  0  0  0  0
   13.1000   -1.1280   21.9310 C   0  0  0  0  0  0  0  0  0  0  0  0
   13.6000   -1.4870   20.9480 N   0  0  0  0  0  0  0  0  0  0  0  0
   12.1380    0.6390   23.5980 C   0  0  1  0  0  0  0  0  0  0  0  0
   12.8110    1.6910   22.7950 C   0  0  0  0  0  0  0  0  0  0  0  0
   12.1870    3.1050   22.8120 C   0  0  0  0  0  0  0  0  0  0  0  0
   11.0670    3.1960   23.5930 C   0  0  1  0  0  0  0  0  0  0  0  0
   10.4110    4.8240   23.5380 S   0  0  1  0  0  0  0  0  0  0  0  0
    9.0840    4.6800   22.5410 N   0  0  0  0  0  0  0  0  0  0  0  0
    9.8680    5.1930   24.8210 O   0  0  0  0  0  0  0  0  0  0  0  0
   11.3730    5.7110   22.9120 O   0  0  0  0  0  0  0  0  0  0  0  0
   10.1820    2.1430   23.4380 C   0  0  0  0  0  0  0  0  0  0  0  0
   10.8230    0.9050   23.7710 N   0  0  0  0  0  0  0  0  0  0  0  0
    6.4260   -0.1590   26.8410 H   0  0  0  0  0  0  0  0  0  0  0  0
    7.2940    1.3820   26.7560 H   0  0  0  0  0  0  0  0  0  0  0  0
    7.5880    0.2610   28.1210 H   0  0  0  0  0  0  0  0  0  0  0  0
    9.2980   -0.4670   27.0120 H   0  0  0  0  0  0  0  0  0  0  0  0
    8.1390   -1.2500   25.9040 H   0  0  0  0  0  0  0  0  0  0  0  0
    9.0470    1.4310   25.4990 H   0  0  0  0  0  0  0  0  0  0  0  0
   10.8740   -0.3020   25.4500 H   0  0  0  0  0  0  0  0  0  0  0  0
    9.2200   -1.2160   23.0700 H   0  0  0  0  0  0  0  0  0  0  0  0
    9.7160   -2.1670   24.4570 H   0  0  0  0  0  0  0  0  0  0  0  0
   11.1090   -1.8250   22.1070 H   0  0  0  0  0  0  0  0  0  0  0  0
   11.6800   -2.5640   23.5610 H   0  0  0  0  0  0  0  0  0  0  0  0
   13.0250   -1.1270   23.9940 H   0  0  0  0  0  0  0  0  0  0  0  0
   12.4620    0.6460   24.6390 H   0  0  0  0  0  0  0  0  0  0  0  0
   12.5420    1.3570   21.8370 H   0  0  0  0  0  0  0  0  0  0  0  0
   13.8890    1.6690   22.7970 H   0  0  0  0  0  0  0  0  0  0  0  0
   12.0800    3.5590   21.8300 H   0  0  0  0  0  0  0  0  0  0  0  0
   12.9630    3.7250   23.2740 H   0  0  0  0  0  0  0  0  0  0  0  0
   11.3740    3.0670   24.5800 H   0  0  0  0  0  0  0  0  0  0  0  0
    8.6570    3.7670   22.6930 H   0  0  0  0  0  0  0  0  0  0  0  0
    9.3540    4.8530   21.5750 H   0  0  0  0  0  0  0  0  0  0  0  0
    9.2460    2.2250   23.9800 H   0  0  0  0  0  0  0  0  0  0  0  0
    9.8810    2.1130   22.3840 H   0  0  0  0  0  0  0  0  0  0  0  0
  1  2  1  0
  2  3  1  0
  3  4  1  0
  4  5  1  0
  5  6  1  0
  6  7  1  0
  7  8  1  0
  8  9  3  0
  7 10  1  0
 10 11  1  0
 11 12  1  0
 12 13  1  0
 13 14  1  0
 14 15  1  6
 14 16  2  0
 14 17  2  0
 13 18  1  0
  4 19  1  0
 10 19  1  0
 18 19  1  0
  1 20  1  0
  1 21  1  0
  1 22  1  0
  2 23  1  0
  2 24  1  0
  3 25  1  0
  4 26  1  1
  5 27  1  0
  5 28  1  0
  6 29  1  0
  6 30  1  0
  7 31  1  1
 10 32  1  1
 11 33  1  0
 11 34  1  0
 12 35  1  0
 12 36  1  0
 13 37  1  1
 15 38  1  0
 15 39  1  0
 18 40  1  0
 18 41  1  0
M  END
