LIG
     RDKit          3D

 39 41  0  0  0  0  0  0  0  0999 V2000
    5.5720    3.8030   30.8520 C   0  0  0  0  0  0  0  0  0  0  0  0
    6.0790    2.6860   29.9860 C   0  0  0  0  0  0  0  0  0  0  0  0
    5.3530    1.5210   29.8320 C   0  0  0  0  0  0  0  0  0  0  0  0
    5.8090    0.4760   29.0440 C   0  0  0  0  0  0  0  0  0  0  0  0
    7.0230    0.5950   28.3850 C   0  0  0  0  0  0  0  0  0  0  0  0
    7.9315   -0.2220   27.5145 O   0  0  0  0  0  0  0  0  0  0  0  0
    8.6710   -0.3495   26.3495 C   0  0  0  0  0  0  0  0  0  0  0  0
   10.1000    0.2670   25.7050 N   0  0  0  0  0  0  0  0  0  0  0  0
   10.9690   -0.2690   25.0570 C   0  0  0  0  0  0  0  0  0  0  0  0
   11.8610    0.2125   24.2485 C   0  0  0  0  0  0  0  0  0  0  0  0
   12.6065   -0.5770   23.5270 N   0  0  0  0  0  0  0  0  0  0  0  0
   12.8560   -1.0095   22.5440 C   0  0  0  0  0  0  0  0  0  0  0  0
   13.3880   -1.4320   21.3740 C   0  0  0  0  0  0  0  0  0  0  0  0
   14.0700   -1.7370   20.5180 N   0  0  0  0  0  0  0  0  0  0  0  0
   11.4050   -2.0400   23.1865 C   0  0  0  0  0  0  0  0  0  0  0  0
   10.6760   -2.6770   24.8000 C   0  0  0  0  0  0  0  0  0  0  0  0
   10.3225   -1.3940   24.6350 N   0  0  0  0  0  0  0  0  0  0  0  0
    8.7900   -1.4080   25.8100 C   0  0  0  0  0  0  0  0  0  0  0  0
    7.9610   -2.2960   25.6070 O   0  0  0  0  0  0  0  0  0  0  0  0
    7.7660    1.7610   28.5270 C   0  0  0  0  0  0  0  0  0  0  0  0
    7.2890    2.7860   29.3270 C   0  0  0  0  0  0  0  0  0  0  0  0
    6.3965    4.2908   31.3818 H   0  0  0  0  0  0  0  0  0  0  0  0
    6.0031    4.7611   30.5443 H   0  0  0  0  0  0  0  0  0  0  0  0
    5.0561    4.5467   30.2375 H   0  0  0  0  0  0  0  0  0  0  0  0
    4.3800    1.4092   30.3382 H   0  0  0  0  0  0  0  0  0  0  0  0
    5.2229   -0.4291   28.9482 H   0  0  0  0  0  0  0  0  0  0  0  0
    7.9189    0.2499   25.4637 H   0  0  0  0  0  0  0  0  0  0  0  0
    9.6615    1.2346   25.2619 H   0  0  0  0  0  0  0  0  0  0  0  0
    9.9549    0.2680   23.8730 H   0  0  0  0  0  0  0  0  0  0  0  0
   12.6004    0.9216   24.8204 H   0  0  0  0  0  0  0  0  0  0  0  0
   11.4044    1.0462   23.5516 H   0  0  0  0  0  0  0  0  0  0  0  0
   12.1265   -2.2405   22.6757 H   0  0  0  0  0  0  0  0  0  0  0  0
   11.6274   -0.7424   21.9047 H   0  0  0  0  0  0  0  0  0  0  0  0
   12.0380   -2.7509   22.8548 H   0  0  0  0  0  0  0  0  0  0  0  0
   10.6805   -1.6821   22.6213 H   0  0  0  0  0  0  0  0  0  0  0  0
   10.0336   -3.3023   24.4215 H   0  0  0  0  0  0  0  0  0  0  0  0
   11.5016   -2.8250   25.2826 H   0  0  0  0  0  0  0  0  0  0  0  0
    8.7058    1.9121   28.0069 H   0  0  0  0  0  0  0  0  0  0  0  0
    7.8890    3.7024   29.4208 H   0  0  0  0  0  0  0  0  0  0  0  0
  1  2  1  0
  2  3  4  0
  3  4  4  0
  4  5  4  0
  5  6  1  0
  6  7  1  0
  7  8  1  0
  8  9  1  0
  9 10  1  0
 10 11  1  0
 11 12  1  0
 12 13  1  0
 13 14  3  0
 11 15  1  0
 15 16  1  0
 16 17  1  0
 17 18  1  0
 18 19  2  0
  5 20  4  0
 20 21  4  0
 21  2  4  0
 18  7  1  0
 17  9  1  0
  1 22  1  0
  1 23  1  0
  1 24  1  0
  3 25  1  0
  4 26  1  0
  7 27  1  0
  8 28  1  0
  9 29  1  0
 10 30  1  0
 10 31  1  0
 12 32  1  0
 12 33  1  0
 15 34  1  0
 15 35  1  0
 16 36  1  0
 16 37  1  0
 20 38  1  0
 21 39  1  0
M  END
