
     RDKit          3D

 36 37  0  0  0  0  0  0  0  0999 V2000
    8.8480    0.1720   27.3380 C   0  0  0  0  0  0  0  0  0  0  0  0
    8.4840   -0.0680   25.8970 C   0  0  0  0  0  0  0  0  0  0  0  0
    9.2820    0.5950   24.9910 N   0  0  0  0  0  0  0  0  0  0  0  0
   10.2650   -0.0600   24.1660 C   0  0  0  0  0  0  0  0  0  0  0  0
   11.4160   -0.4410   24.7750 N   0  0  0  0  0  0  0  0  0  0  0  0
   12.4620   -1.1190   23.9920 C   0  0  0  0  0  0  0  0  0  0  0  0
   12.1790   -1.3690   22.5660 C   0  0  0  0  0  0  0  0  0  0  0  0
   12.9520   -1.9670   21.6480 C   0  0  0  0  0  0  0  0  0  0  0  0
   13.5110   -2.4480   20.8020 N   0  0  0  0  0  0  0  0  0  0  0  0
   10.9940   -0.9480   22.0560 C   0  0  0  0  0  0  0  0  0  0  0  0
   10.0330   -0.2860   22.7810 C   0  0  0  0  0  0  0  0  0  0  0  0
    8.7930    0.1830   22.0080 C   0  0  0  0  0  0  0  0  0  0  0  0
    8.7060    1.3990   21.9190 O   0  0  0  0  0  0  0  0  0  0  0  0
    7.8910   -0.6800   21.3670 N   0  0  0  0  0  0  0  0  0  0  0  0
    6.9560   -0.1790   20.3960 C   0  0  0  0  0  0  0  0  0  0  0  0
    7.1820   -0.3960   19.0380 C   0  0  0  0  0  0  0  0  0  0  0  0
    6.3860    0.0460   18.0220 N   0  0  0  0  0  0  0  0  0  0  0  0
    5.2940    0.7380   18.3570 C   0  0  0  0  0  0  0  0  0  0  0  0
    4.9660    1.0030   19.6710 C   0  0  0  0  0  0  0  0  0  0  0  0
    5.7870    0.5500   20.7020 C   0  0  0  0  0  0  0  0  0  0  0  0
    5.4130    0.8470   22.0240 C   0  0  0  0  0  0  0  0  0  0  0  0
    8.6080    1.1890   27.6490 H   0  0  0  0  0  0  0  0  0  0  0  0
    9.9240    0.0210   27.4650 H   0  0  0  0  0  0  0  0  0  0  0  0
    8.3010   -0.5340   27.9680 H   0  0  0  0  0  0  0  0  0  0  0  0
    8.5320   -1.1410   25.7050 H   0  0  0  0  0  0  0  0  0  0  0  0
    7.4500    0.2510   25.7510 H   0  0  0  0  0  0  0  0  0  0  0  0
    9.5060    1.5620   25.2590 H   0  0  0  0  0  0  0  0  0  0  0  0
   13.4240   -1.4500   24.4150 H   0  0  0  0  0  0  0  0  0  0  0  0
   10.7940   -1.1310   21.0150 H   0  0  0  0  0  0  0  0  0  0  0  0
    7.6240   -1.5230   21.8570 H   0  0  0  0  0  0  0  0  0  0  0  0
    8.0410   -0.9470   18.6720 H   0  0  0  0  0  0  0  0  0  0  0  0
    4.6740    1.0810   17.5320 H   0  0  0  0  0  0  0  0  0  0  0  0
    4.0620    1.5690   19.8800 H   0  0  0  0  0  0  0  0  0  0  0  0
    4.4960    1.4490   22.0330 H   0  0  0  0  0  0  0  0  0  0  0  0
    6.2140    1.3790   22.5470 H   0  0  0  0  0  0  0  0  0  0  0  0
    5.2060   -0.0740   22.5750 H   0  0  0  0  0  0  0  0  0  0  0  0
  1  2  1  0
  2  3  1  0
  3  4  1  0
  4  5  2  0
  5  6  1  0
  6  7  2  0
  7  8  1  0
  8  9  3  0
  7 10  1  0
  4 11  1  0
 10 11  2  0
 11 12  1  0
 12 13  2  0
 12 14  1  0
 14 15  1  0
 15 16  2  0
 16 17  1  0
 17 18  2  0
 18 19  1  0
 15 20  1  0
 19 20  2  0
 20 21  1  0
  1 22  1  0
  1 23  1  0
  1 24  1  0
  2 25  1  0
  2 26  1  0
  3 27  1  0
  6 28  1  0
 10 29  1  0
 14 30  1  0
 16 31  1  0
 18 32  1  0
 19 33  1  0
 21 34  1  0
 21 35  1  0
 21 36  1  0
M  END
