
     RDKit          3D

 36 37  0  0  0  0  0  0  0  0999 V2000
    7.6910   -0.0330   26.5960 C   0  0  0  0  0  0  0  0  0  0  0  0
    8.2630    0.2430   25.2770 N   0  0  0  0  0  0  0  0  0  0  0  0
    9.6490    0.5690   25.4870 C   0  0  0  0  0  0  0  0  0  0  0  0
   10.4480    0.0010   24.5290 C   0  0  0  0  0  0  0  0  0  0  0  0
   11.6210    0.8010   23.9720 C   0  0  0  0  0  0  0  0  0  0  0  0
   12.4590    0.1640   22.9450 C   0  0  0  0  0  0  0  0  0  0  0  0
   12.1790   -1.1000   22.5100 C   0  0  0  0  0  0  0  0  0  0  0  0
   13.1150   -1.5350   21.4740 C   0  0  0  0  0  0  0  0  0  0  0  0
   13.7760   -1.7900   20.6260 N   0  0  0  0  0  0  0  0  0  0  0  0
   11.1310   -1.8550   22.9910 C   0  0  0  0  0  0  0  0  0  0  0  0
   10.2300   -1.2960   24.0350 C   0  0  0  0  0  0  0  0  0  0  0  0
    7.6150    1.0860   24.3710 C   0  0  0  0  0  0  0  0  0  0  0  0
    8.1630    2.0220   23.7890 O   0  0  0  0  0  0  0  0  0  0  0  0
    6.1940    0.7700   24.1510 N   0  0  0  0  0  0  0  0  0  0  0  0
    5.2380    0.9490   25.1820 C   0  0  0  0  0  0  0  0  0  0  0  0
    3.9480    0.5620   24.9020 C   0  0  0  0  0  0  0  0  0  0  0  0
    3.5120    1.2350   23.7210 O   0  0  0  0  0  0  0  0  0  0  0  0
    4.5210    1.8580   22.8950 C   0  0  0  0  0  0  0  0  0  0  0  0
    5.6890    1.1000   22.8130 C   0  0  0  0  0  0  0  0  0  0  0  0
    7.0230   -0.8970   26.5420 H   0  0  0  0  0  0  0  0  0  0  0  0
    8.4660   -0.2610   27.3320 H   0  0  0  0  0  0  0  0  0  0  0  0
    7.1170    0.8280   26.9430 H   0  0  0  0  0  0  0  0  0  0  0  0
    9.9640    0.2090   26.4710 H   0  0  0  0  0  0  0  0  0  0  0  0
    9.7570    1.6470   25.4260 H   0  0  0  0  0  0  0  0  0  0  0  0
   11.8310    1.8100   24.3190 H   0  0  0  0  0  0  0  0  0  0  0  0
   13.3000    0.7180   22.5350 H   0  0  0  0  0  0  0  0  0  0  0  0
   10.8730   -2.8700   22.6690 H   0  0  0  0  0  0  0  0  0  0  0  0
    9.4270   -1.9790   24.3470 H   0  0  0  0  0  0  0  0  0  0  0  0
    5.2450    2.0120   25.3970 H   0  0  0  0  0  0  0  0  0  0  0  0
    5.5730    0.4480   26.0910 H   0  0  0  0  0  0  0  0  0  0  0  0
    3.7420   -0.4930   24.7430 H   0  0  0  0  0  0  0  0  0  0  0  0
    3.2880    0.8880   25.7000 H   0  0  0  0  0  0  0  0  0  0  0  0
    3.9980    2.0480   21.9640 H   0  0  0  0  0  0  0  0  0  0  0  0
    4.6390    2.8510   23.3220 H   0  0  0  0  0  0  0  0  0  0  0  0
    6.5070    1.5700   22.2800 H   0  0  0  0  0  0  0  0  0  0  0  0
    5.4640    0.1650   22.2880 H   0  0  0  0  0  0  0  0  0  0  0  0
  1  2  1  0
  2  3  1  0
  3  4  1  0
  4  5  2  0
  5  6  1  0
  6  7  2  0
  7  8  1  0
  8  9  3  0
  7 10  1  0
  4 11  1  0
 10 11  2  0
  2 12  1  0
 12 13  2  0
 12 14  1  0
 14 15  1  0
 15 16  1  0
 16 17  1  0
 17 18  1  0
 14 19  1  0
 18 19  1  0
  1 20  1  0
  1 21  1  0
  1 22  1  0
  3 23  1  0
  3 24  1  0
  5 25  1  0
  6 26  1  0
 10 27  1  0
 11 28  1  0
 15 29  1  0
 15 30  1  0
 16 31  1  0
 16 32  1  0
 18 33  1  0
 18 34  1  0
 19 35  1  0
 19 36  1  0
M  END
