LIG
     RDKit          3D

 47 50  0  0  0  0  0  0  0  0999 V2000
    8.4100    0.0120   27.4140 C   0  0  0  0  0  0  0  0  0  0  0  0
    8.8870   -1.0620   25.4510 C   0  0  0  0  0  0  0  0  0  0  0  0
    8.8780   -0.4790   23.9400 C   0  0  0  0  0  0  0  0  0  0  0  0
   10.0800   -0.9475   23.3220 C   0  0  0  0  0  0  0  0  0  0  0  0
    9.7510    0.5640   21.9590 C   0  0  0  0  0  0  0  0  0  0  0  0
    9.8900    1.5270   21.3460 N   0  0  0  0  0  0  0  0  0  0  0  0
   10.9270   -0.1760   24.6090 C   0  0  0  0  0  0  0  0  0  0  0  0
   12.0070    0.5160   24.2990 N   0  0  0  0  0  0  0  0  0  0  0  0
   12.7880    0.1370   23.2890 C   0  0  0  0  0  0  0  0  0  0  0  0
   12.4940   -0.9910   22.5240 C   0  0  0  0  0  0  0  0  0  0  0  0
   13.3880   -1.4320   21.3740 C   0  0  0  0  0  0  0  0  0  0  0  0
   14.0700   -1.7370   20.5180 N   0  0  0  0  0  0  0  0  0  0  0  0
   10.7830   -1.7270   22.5865 N   0  0  0  0  0  0  0  0  0  0  0  0
   10.1230   -2.7850   23.1640 C   0  0  0  0  0  0  0  0  0  0  0  0
    9.4490   -2.7910   24.4310 C   0  0  0  0  0  0  0  0  0  0  0  0
    9.5290   -3.9700   25.2640 N   0  0  0  0  0  0  0  0  0  0  0  0
    9.8940   -5.2910   24.6800 C   0  0  0  0  0  0  0  0  0  0  0  0
    8.9080   -5.8040   23.6240 C   0  0  0  0  0  0  0  0  0  0  0  0
    7.4420   -5.5890   24.0410 C   0  0  0  0  0  0  0  0  0  0  0  0
    7.3000   -5.8000   25.4420 O   0  0  0  0  0  0  0  0  0  0  0  0
    7.2860   -4.6680   26.2770 C   0  0  0  0  0  0  0  0  0  0  0  0
    8.7010   -4.0730   26.4970 C   0  0  0  0  0  0  0  0  0  0  0  0
   10.1000    0.2670   25.7050 N   0  0  0  0  0  0  0  0  0  0  0  0
    7.6844    0.5663   26.9787 H   0  0  0  0  0  0  0  0  0  0  0  0
    8.5952    0.9192   26.9843 H   0  0  0  0  0  0  0  0  0  0  0  0
    9.3585    0.3926   27.4590 H   0  0  0  0  0  0  0  0  0  0  0  0
    7.9312   -0.8381   23.4421 H   0  0  0  0  0  0  0  0  0  0  0  0
    8.7211    0.6375   23.9738 H   0  0  0  0  0  0  0  0  0  0  0  0
   11.4617   -1.2524   25.1001 H   0  0  0  0  0  0  0  0  0  0  0  0
   12.6020    0.6646   25.1912 H   0  0  0  0  0  0  0  0  0  0  0  0
   12.9300    1.0672   22.6241 H   0  0  0  0  0  0  0  0  0  0  0  0
   13.8583    0.0358   23.7007 H   0  0  0  0  0  0  0  0  0  0  0  0
   12.8867   -1.9390   23.3289 H   0  0  0  0  0  0  0  0  0  0  0  0
    9.4302   -3.2681   22.3680 H   0  0  0  0  0  0  0  0  0  0  0  0
   10.9232   -3.6152   23.1808 H   0  0  0  0  0  0  0  0  0  0  0  0
    8.2299   -3.0175   24.0347 H   0  0  0  0  0  0  0  0  0  0  0  0
   10.8601   -5.2391   24.2067 H   0  0  0  0  0  0  0  0  0  0  0  0
    9.9088   -6.0135   25.4793 H   0  0  0  0  0  0  0  0  0  0  0  0
    9.0802   -6.8678   23.4885 H   0  0  0  0  0  0  0  0  0  0  0  0
    9.0884   -5.3028   22.6775 H   0  0  0  0  0  0  0  0  0  0  0  0
    7.1881   -4.5408   23.8609 H   0  0  0  0  0  0  0  0  0  0  0  0
    6.7426   -6.2004   23.4635 H   0  0  0  0  0  0  0  0  0  0  0  0
    6.8023   -4.9015   27.2233 H   0  0  0  0  0  0  0  0  0  0  0  0
    6.6817   -3.9123   25.7774 H   0  0  0  0  0  0  0  0  0  0  0  0
    9.1994   -4.7293   27.2351 H   0  0  0  0  0  0  0  0  0  0  0  0
    8.6357   -3.0898   27.0051 H   0  0  0  0  0  0  0  0  0  0  0  0
    9.5699    1.0239   25.4684 H   0  0  0  0  0  0  0  0  0  0  0  0
  1  2  1  0
  2  3  1  0
  3  4  1  0
  4  5  1  0
  5  6  3  0
  4  7  1  0
  7  8  1  0
  8  9  1  0
  9 10  1  0
 10 11  1  0
 11 12  3  0
 10 13  1  0
 13 14  1  0
 14 15  1  0
 15 16  1  0
 16 17  1  0
 17 18  1  0
 18 19  1  0
 19 20  1  0
 20 21  1  0
 21 22  1  0
  7 23  1  0
 15  2  1  0
 22 16  1  0
 23  2  1  0
 13  4  1  0
  1 24  1  0
  1 25  1  0
  1 26  1  0
  3 27  1  0
  3 28  1  0
  7 29  1  0
  8 30  1  0
  9 31  1  0
  9 32  1  0
 10 33  1  0
 14 34  1  0
 14 35  1  0
 15 36  1  0
 17 37  1  0
 17 38  1  0
 18 39  1  0
 18 40  1  0
 19 41  1  0
 19 42  1  0
 21 43  1  0
 21 44  1  0
 22 45  1  0
 22 46  1  0
 23 47  1  0
M  END
