LIG
     RDKit          3D

 36 37  0  0  0  0  0  0  0  0999 V2000
    8.4100    0.0120   27.4140 C   0  0  0  0  0  0  0  0  0  0  0  0
    8.9670   -0.5390   26.1210 C   0  0  0  0  0  0  0  0  0  0  0  0
   10.1000    0.2670   25.7050 N   0  0  0  0  0  0  0  0  0  0  0  0
   10.7410    0.1010   24.2635 C   0  0  0  0  0  0  0  0  0  0  0  0
   11.8835    0.7035   24.3150 C   0  0  0  0  0  0  0  0  0  0  0  0
   12.8535    0.3570   23.4625 C   0  0  0  0  0  0  0  0  0  0  0  0
   12.6840   -0.6240   22.5280 C   0  0  0  0  0  0  0  0  0  0  0  0
   13.3880   -1.4320   21.3740 C   0  0  0  0  0  0  0  0  0  0  0  0
   14.0700   -1.7370   20.5180 N   0  0  0  0  0  0  0  0  0  0  0  0
   11.5135   -1.2480   22.4740 C   0  0  0  0  0  0  0  0  0  0  0  0
   10.5470   -0.8835   23.3545 C   0  0  0  0  0  0  0  0  0  0  0  0
    9.2320   -0.9350   22.4160 N   0  0  0  0  0  0  0  0  0  0  0  0
    8.5920   -0.2080   21.3470 C   0  0  0  0  0  0  0  0  0  0  0  0
    9.1440    0.7090   20.8350 O   0  0  0  0  0  0  0  0  0  0  0  0
    7.2840   -0.6350   20.9180 N   0  0  0  0  0  0  0  0  0  0  0  0
    6.6030    0.0510   19.8530 C   0  0  0  0  0  0  0  0  0  0  0  0
    5.3980    0.6740   20.1340 C   0  0  0  0  0  0  0  0  0  0  0  0
    4.7680    1.3310   19.0890 C   0  0  0  0  0  0  0  0  0  0  0  0
    5.3600    1.2970   17.8310 C   0  0  0  0  0  0  0  0  0  0  0  0
    6.5100    0.7030   17.6230 N   0  0  0  0  0  0  0  0  0  0  0  0
    7.1440    0.0770   18.5790 C   0  0  0  0  0  0  0  0  0  0  0  0
    7.6986    0.8211   27.2132 H   0  0  0  0  0  0  0  0  0  0  0  0
    7.3203   -0.0981   27.4571 H   0  0  0  0  0  0  0  0  0  0  0  0
    7.8871   -0.7645   27.9855 H   0  0  0  0  0  0  0  0  0  0  0  0
    8.1761   -0.5119   25.3610 H   0  0  0  0  0  0  0  0  0  0  0  0
    9.2697   -1.5826   26.2780 H   0  0  0  0  0  0  0  0  0  0  0  0
   10.9068    0.2030   26.3276 H   0  0  0  0  0  0  0  0  0  0  0  0
   12.1056    1.5236   25.0190 H   0  0  0  0  0  0  0  0  0  0  0  0
   13.8341    0.8925   23.5067 H   0  0  0  0  0  0  0  0  0  0  0  0
   11.3481   -2.0647   21.7692 H   0  0  0  0  0  0  0  0  0  0  0  0
    8.5549   -1.6224   22.7876 H   0  0  0  0  0  0  0  0  0  0  0  0
    6.8483   -1.2962   21.4324 H   0  0  0  0  0  0  0  0  0  0  0  0
    4.9487    0.6693   21.1042 H   0  0  0  0  0  0  0  0  0  0  0  0
    3.8355    1.8623   19.2414 H   0  0  0  0  0  0  0  0  0  0  0  0
    4.8836    1.7654   16.9840 H   0  0  0  0  0  0  0  0  0  0  0  0
    8.0606   -0.3937   18.3369 H   0  0  0  0  0  0  0  0  0  0  0  0
  1  2  1  0
  2  3  1  0
  3  4  1  0
  4  5  4  0
  5  6  4  0
  6  7  4  0
  7  8  1  0
  8  9  3  0
  7 10  4  0
 10 11  4  0
 11 12  1  0
 12 13  1  0
 13 14  2  0
 13 15  1  0
 15 16  1  0
 16 17  4  0
 17 18  4  0
 18 19  4  0
 19 20  4  0
 20 21  4  0
 11  4  4  0
 21 16  4  0
  1 22  1  0
  1 23  1  0
  1 24  1  0
  2 25  1  0
  2 26  1  0
  3 27  1  0
  5 28  1  0
  6 29  1  0
 10 30  1  0
 12 31  1  0
 15 32  1  0
 17 33  1  0
 18 34  1  0
 19 35  1  0
 21 36  1  0
M  END
