
     RDKit          3D

 43 44  0  0  0  0  0  0  0  0999 V2000
    8.3780   -0.7120   27.5420 C   0  0  0  0  0  0  0  0  0  0  0  0
    8.4010   -0.1760   26.1460 C   0  0  0  0  0  0  0  0  0  0  0  0
    9.3550   -0.7530   25.3620 N   0  0  0  0  0  0  0  0  0  0  0  0
    9.0140   -1.2240   24.0370 C   0  0  1  0  0  0  0  0  0  0  0  0
   10.1150   -0.8010   23.0280 C   0  0  1  0  0  0  0  0  0  0  0  0
   11.0690    0.1930   23.6370 C   0  0  0  0  0  0  0  0  0  0  0  0
   12.3780    0.0170   23.3250 C   0  0  0  0  0  0  0  0  0  0  0  0
   12.5240   -1.5700   22.5750 S   0  0  2  0  0  0  0  0  0  0  0  0
   13.4250   -1.3980   21.1350 C   0  0  0  0  0  0  0  0  0  0  0  0
   14.0440   -1.2080   20.2310 N   0  0  0  0  0  0  0  0  0  0  0  0
   10.7940   -1.8230   22.2920 C   0  0  0  0  0  0  0  0  0  0  0  0
    8.5830   -2.5760   24.1710 N   0  0  0  0  0  0  0  0  0  0  0  0
    7.2930   -2.6670   24.6360 C   0  0  0  0  0  0  0  0  0  0  0  0
    7.0580   -3.8510   25.6300 C   0  0  0  0  0  0  0  0  0  0  0  0
    8.1950   -4.2410   26.2850 C   0  0  1  0  0  0  0  0  0  0  0  0
    8.2190   -5.0150   27.2300 O   0  0  0  0  0  0  0  0  0  0  0  0
    9.1170   -4.5650   25.3440 C   0  0  0  0  0  0  0  0  0  0  0  0
    9.5810   -3.4580   24.6910 C   0  0  0  0  0  0  0  0  0  0  0  0
    9.3840   -0.7760   27.9590 H   0  0  0  0  0  0  0  0  0  0  0  0
    7.7860   -0.0490   28.1780 H   0  0  0  0  0  0  0  0  0  0  0  0
    7.9360   -1.7110   27.5370 H   0  0  0  0  0  0  0  0  0  0  0  0
    8.5720    0.9000   26.1970 H   0  0  0  0  0  0  0  0  0  0  0  0
    7.4140   -0.3340   25.6980 H   0  0  0  0  0  0  0  0  0  0  0  0
    9.9200   -1.4180   25.9000 H   0  0  0  0  0  0  0  0  0  0  0  0
    8.1080   -0.6740   23.7490 H   0  0  0  0  0  0  0  0  0  0  0  0
    9.5960   -0.2450   22.2390 H   0  0  0  0  0  0  0  0  0  0  0  0
   10.9800    0.1720   24.7310 H   0  0  0  0  0  0  0  0  0  0  0  0
   10.7780    1.2130   23.3510 H   0  0  0  0  0  0  0  0  0  0  0  0
   12.7430    0.7860   22.6370 H   0  0  0  0  0  0  0  0  0  0  0  0
   12.9420    0.0470   24.2580 H   0  0  0  0  0  0  0  0  0  0  0  0
   13.0300   -2.5160   23.3860 H   0  0  0  0  0  0  0  0  0  0  0  0
   10.5530   -2.8240   22.6630 H   0  0  0  0  0  0  0  0  0  0  0  0
   10.6050   -1.7680   21.2270 H   0  0  0  0  0  0  0  0  0  0  0  0
    6.6600   -2.8830   23.7630 H   0  0  0  0  0  0  0  0  0  0  0  0
    6.9700   -1.6860   24.9680 H   0  0  0  0  0  0  0  0  0  0  0  0
    6.4590   -4.6610   25.2210 H   0  0  0  0  0  0  0  0  0  0  0  0
    6.3920   -3.4430   26.3990 H   0  0  0  0  0  0  0  0  0  0  0  0
    8.5230   -3.3160   26.7620 H   0  0  0  0  0  0  0  0  0  0  0  0
    8.2440   -4.4870   28.0480 H   0  0  0  0  0  0  0  0  0  0  0  0
    9.9360   -5.1340   25.7990 H   0  0  0  0  0  0  0  0  0  0  0  0
    8.6510   -5.2530   24.6290 H   0  0  0  0  0  0  0  0  0  0  0  0
   10.3370   -3.6670   23.9350 H   0  0  0  0  0  0  0  0  0  0  0  0
   10.0270   -2.8860   25.4300 H   0  0  0  0  0  0  0  0  0  0  0  0
  1  2  1  0
  2  3  1  0
  3  4  1  0
  4  5  1  0
  5  6  1  0
  6  7  1  0
  7  8  1  0
  8  9  1  0
  9 10  3  0
  5 11  1  0
  8 11  1  0
  4 12  1  0
 12 13  1  0
 13 14  1  0
 14 15  1  0
 15 16  1  0
 15 17  1  0
 12 18  1  0
 17 18  1  0
  1 19  1  0
  1 20  1  0
  1 21  1  0
  2 22  1  0
  2 23  1  0
  3 24  1  0
  4 25  1  6
  5 26  1  6
  6 27  1  0
  6 28  1  0
  7 29  1  0
  7 30  1  0
  8 31  1  1
 11 32  1  0
 11 33  1  0
 13 34  1  0
 13 35  1  0
 14 36  1  0
 14 37  1  0
 15 38  1  1
 16 39  1  0
 17 40  1  0
 17 41  1  0
 18 42  1  0
 18 43  1  0
M  END
