
     RDKit          3D

 36 37  0  0  0  0  0  0  0  0999 V2000
    8.7840   -0.3050   27.5180 C   0  0  0  0  0  0  0  0  0  0  0  0
    8.7480   -0.4150   26.0260 C   0  0  0  0  0  0  0  0  0  0  0  0
    9.6030    0.4420   25.3710 N   0  0  0  0  0  0  0  0  0  0  0  0
   10.4220   -0.0710   24.2980 C   0  0  0  0  0  0  0  0  0  0  0  0
   11.9360    0.0800   24.3910 C   0  0  0  0  0  0  0  0  0  0  0  0
   12.7690   -0.4390   23.3350 C   0  0  0  0  0  0  0  0  0  0  0  0
   12.2110   -1.0530   22.2920 C   0  0  0  0  0  0  0  0  0  0  0  0
   13.1890   -1.5100   21.3320 C   0  0  0  0  0  0  0  0  0  0  0  0
   13.8890   -1.7580   20.5340 N   0  0  0  0  0  0  0  0  0  0  0  0
   10.8700   -1.2270   22.1210 C   0  0  0  0  0  0  0  0  0  0  0  0
    9.9370   -0.7160   23.1420 C   0  0  0  0  0  0  0  0  0  0  0  0
    8.6160   -0.8980   22.8690 N   0  0  0  0  0  0  0  0  0  0  0  0
    8.0780   -0.1770   21.6890 C   0  0  0  0  0  0  0  0  0  0  0  0
    8.5790    0.8530   21.2530 O   0  0  0  0  0  0  0  0  0  0  0  0
    6.9710   -0.7590   21.1310 N   0  0  0  0  0  0  0  0  0  0  0  0
    6.3880   -0.1090   20.1440 C   0  0  0  0  0  0  0  0  0  0  0  0
    5.2110    0.6420   20.3130 C   0  0  0  0  0  0  0  0  0  0  0  0
    4.6550    1.3160   19.2330 C   0  0  0  0  0  0  0  0  0  0  0  0
    5.2160    1.2820   17.9800 C   0  0  0  0  0  0  0  0  0  0  0  0
    6.3250    0.5950   17.7200 N   0  0  0  0  0  0  0  0  0  0  0  0
    6.9120   -0.1190   18.8560 C   0  0  0  0  0  0  0  0  0  0  0  0
    8.1220    0.4840   27.8860 H   0  0  0  0  0  0  0  0  0  0  0  0
    8.4540   -1.2530   27.9490 H   0  0  0  0  0  0  0  0  0  0  0  0
    9.8070   -0.0950   27.8380 H   0  0  0  0  0  0  0  0  0  0  0  0
    7.7190   -0.2220   25.7030 H   0  0  0  0  0  0  0  0  0  0  0  0
    9.0010   -1.4470   25.7570 H   0  0  0  0  0  0  0  0  0  0  0  0
   10.1020    1.0490   26.0280 H   0  0  0  0  0  0  0  0  0  0  0  0
   12.4350    0.5430   25.1960 H   0  0  0  0  0  0  0  0  0  0  0  0
   13.8410   -0.3290   23.4050 H   0  0  0  0  0  0  0  0  0  0  0  0
   10.5010   -1.7310   21.2360 H   0  0  0  0  0  0  0  0  0  0  0  0
    8.0490   -0.9610   23.7080 H   0  0  0  0  0  0  0  0  0  0  0  0
    6.3600   -1.2590   21.7630 H   0  0  0  0  0  0  0  0  0  0  0  0
    4.7390    0.6970   21.2900 H   0  0  0  0  0  0  0  0  0  0  0  0
    3.7500    1.9180   19.2780 H   0  0  0  0  0  0  0  0  0  0  0  0
    4.7180    1.8450   17.1880 H   0  0  0  0  0  0  0  0  0  0  0  0
    7.8210   -0.6720   18.5960 H   0  0  0  0  0  0  0  0  0  0  0  0
  1  2  1  0
  2  3  1  0
  3  4  1  0
  4  5  2  0
  5  6  1  0
  6  7  2  0
  7  8  1  0
  8  9  3  0
  7 10  1  0
  4 11  1  0
 10 11  2  0
 11 12  1  0
 12 13  1  0
 13 14  2  0
 13 15  1  0
 15 16  1  0
 16 17  2  0
 17 18  1  0
 18 19  2  0
 19 20  1  0
 16 21  1  0
 20 21  2  0
  1 22  1  0
  1 23  1  0
  1 24  1  0
  2 25  1  0
  2 26  1  0
  3 27  1  0
  5 28  1  0
  6 29  1  0
 10 30  1  0
 12 31  1  0
 15 32  1  0
 17 33  1  0
 18 34  1  0
 19 35  1  0
 21 36  1  0
M  END
