LIG
     RDKit          3D

 62 66  0  0  0  0  0  0  0  0999 V2000
    5.5720    3.8030   30.8520 C   0  0  0  0  0  0  0  0  0  0  0  0
    6.0790    2.6860   29.9860 C   0  0  0  0  0  0  0  0  0  0  0  0
    5.3530    1.5210   29.8320 C   0  0  0  0  0  0  0  0  0  0  0  0
    5.8090    0.4760   29.0440 C   0  0  0  0  0  0  0  0  0  0  0  0
    7.0230    0.5950   28.3850 C   0  0  0  0  0  0  0  0  0  0  0  0
    7.4530   -0.4560   27.6150 O   0  0  0  0  0  0  0  0  0  0  0  0
    8.3750   -0.1600   26.5780 C   0  0  0  0  0  0  0  0  0  0  0  0
    8.7900   -1.4080   25.8100 C   0  0  0  0  0  0  0  0  0  0  0  0
    7.9610   -2.2960   25.6070 O   0  0  0  0  0  0  0  0  0  0  0  0
   10.0690   -1.4770   25.3800 N   0  0  0  0  0  0  0  0  0  0  0  0
   10.6760   -2.6770   24.8000 C   0  0  0  0  0  0  0  0  0  0  0  0
   11.4560   -2.0960   23.2645 C   0  0  0  0  0  0  0  0  0  0  0  0
   10.0140   -1.4540   23.1290 C   0  0  0  0  0  0  0  0  0  0  0  0
    9.8260   -0.0960   22.6220 N   0  0  0  0  0  0  0  0  0  0  0  0
    9.0660    0.2300   21.5610 C   0  0  0  0  0  0  0  0  0  0  0  0
    8.9960    1.3830   21.1430 O   0  0  0  0  0  0  0  0  0  0  0  0
    8.3080   -0.8880   20.8630 C   0  0  0  0  0  0  0  0  0  0  0  0
    7.4330   -0.3020   19.8060 C   0  0  0  0  0  0  0  0  0  0  0  0
    7.6450   -0.3300   18.4600 C   0  0  0  0  0  0  0  0  0  0  0  0
    6.6410    0.3430   17.8150 N   0  0  0  0  0  0  0  0  0  0  0  0
    5.7600    0.8140   18.7420 C   0  0  0  0  0  0  0  0  0  0  0  0
    4.6510    1.5300   18.5060 N   0  0  0  0  0  0  0  0  0  0  0  0
    3.9600    1.8790   19.5990 C   0  0  0  0  0  0  0  0  0  0  0  0
    4.3240    1.5630   20.9050 C   0  0  0  0  0  0  0  0  0  0  0  0
    5.4760    0.8390   21.1280 C   0  0  0  0  0  0  0  0  0  0  0  0
    6.2270    0.4400   20.0170 C   0  0  0  0  0  0  0  0  0  0  0  0
   10.6540    0.8680   23.3430 C   0  0  0  0  0  0  0  0  0  0  0  0
   11.9100    0.1890   23.7105 C   0  0  0  0  0  0  0  0  0  0  0  0
   11.0110   -0.3620   25.5050 C   0  0  0  0  0  0  0  0  0  0  0  0
   12.3730   -1.0925   23.7415 N   0  0  0  0  0  0  0  0  0  0  0  0
   13.4735   -1.1495   23.0840 C   0  0  0  0  0  0  0  0  0  0  0  0
    7.7660    1.7610   28.5270 C   0  0  0  0  0  0  0  0  0  0  0  0
    7.2890    2.7860   29.3270 C   0  0  0  0  0  0  0  0  0  0  0  0
    4.8774    4.4399   30.2954 H   0  0  0  0  0  0  0  0  0  0  0  0
    5.0560    3.3919   31.7251 H   0  0  0  0  0  0  0  0  0  0  0  0
    6.3948    4.4382   31.1932 H   0  0  0  0  0  0  0  0  0  0  0  0
    4.3783    1.4071   30.3352 H   0  0  0  0  0  0  0  0  0  0  0  0
    5.2183   -0.4201   28.9375 H   0  0  0  0  0  0  0  0  0  0  0  0
    9.2529    0.2080   27.0951 H   0  0  0  0  0  0  0  0  0  0  0  0
    8.0204    0.6127   25.9103 H   0  0  0  0  0  0  0  0  0  0  0  0
   11.4803   -2.9969   25.3656 H   0  0  0  0  0  0  0  0  0  0  0  0
   10.0049   -3.3927   24.4903 H   0  0  0  0  0  0  0  0  0  0  0  0
   11.5621   -2.8380   22.7850 H   0  0  0  0  0  0  0  0  0  0  0  0
    9.4742   -1.5971   24.1070 H   0  0  0  0  0  0  0  0  0  0  0  0
    9.4183   -2.1093   22.4359 H   0  0  0  0  0  0  0  0  0  0  0  0
    7.7295   -1.5043   21.5370 H   0  0  0  0  0  0  0  0  0  0  0  0
    9.0529   -1.5505   20.4193 H   0  0  0  0  0  0  0  0  0  0  0  0
    8.4403   -0.7928   17.8607 H   0  0  0  0  0  0  0  0  0  0  0  0
    6.5379    0.4768   16.8241 H   0  0  0  0  0  0  0  0  0  0  0  0
    3.0572    2.4469   19.4125 H   0  0  0  0  0  0  0  0  0  0  0  0
    3.6958    1.8848   21.7361 H   0  0  0  0  0  0  0  0  0  0  0  0
    5.7890    0.5767   22.1410 H   0  0  0  0  0  0  0  0  0  0  0  0
   10.1382    1.2235   24.2150 H   0  0  0  0  0  0  0  0  0  0  0  0
   10.8276    1.6873   22.6596 H   0  0  0  0  0  0  0  0  0  0  0  0
   12.5290    0.8672   24.3506 H   0  0  0  0  0  0  0  0  0  0  0  0
   11.8894   -0.5607   26.0592 H   0  0  0  0  0  0  0  0  0  0  0  0
   10.5865    0.5825   25.7334 H   0  0  0  0  0  0  0  0  0  0  0  0
   13.4611   -1.6504   22.0689 H   0  0  0  0  0  0  0  0  0  0  0  0
   13.4343   -0.6550   22.0703 H   0  0  0  0  0  0  0  0  0  0  0  0
   13.9383   -0.1433   22.8662 H   0  0  0  0  0  0  0  0  0  0  0  0
    8.7090    1.9065   28.0146 H   0  0  0  0  0  0  0  0  0  0  0  0
    7.8956    3.6952   29.4273 H   0  0  0  0  0  0  0  0  0  0  0  0
  1  2  1  0
  2  3  4  0
  3  4  4  0
  4  5  4  0
  5  6  1  0
  6  7  1  0
  7  8  1  0
  8  9  2  0
  8 10  1  0
 10 11  1  0
 11 12  1  0
 12 13  1  0
 13 14  1  0
 14 15  1  0
 15 16  2  0
 15 17  1  0
 17 18  1  0
 18 19  4  0
 19 20  4  0
 20 21  4  0
 21 22  4  0
 22 23  4  0
 23 24  4  0
 24 25  4  0
 25 26  4  0
 14 27  1  0
 27 28  1  0
 28 29  1  0
 28 30  1  0
 30 31  1  0
  5 32  4  0
 32 33  4  0
 33  2  4  0
 29 10  1  0
 30 12  1  0
 26 18  4  0
 26 21  4  0
  1 34  1  0
  1 35  1  0
  1 36  1  0
  3 37  1  0
  4 38  1  0
  7 39  1  0
  7 40  1  0
 11 41  1  0
 11 42  1  0
 12 43  1  0
 13 44  1  0
 13 45  1  0
 17 46  1  0
 17 47  1  0
 19 48  1  0
 20 49  1  0
 23 50  1  0
 24 51  1  0
 25 52  1  0
 27 53  1  0
 27 54  1  0
 28 55  1  0
 29 56  1  0
 29 57  1  0
 31 58  1  0
 31 59  1  0
 31 60  1  0
 32 61  1  0
 33 62  1  0
M  END
