LIG
     RDKit          3D

 54 57  0  0  0  0  0  0  0  0999 V2000
    5.5720    3.8030   30.8520 C   0  0  0  0  0  0  0  0  0  0  0  0
    6.0790    2.6860   29.9860 C   0  0  0  0  0  0  0  0  0  0  0  0
    7.2890    2.7860   29.3270 C   0  0  0  0  0  0  0  0  0  0  0  0
    7.7660    1.7610   28.5270 C   0  0  0  0  0  0  0  0  0  0  0  0
    7.0230    0.5950   28.3850 C   0  0  0  0  0  0  0  0  0  0  0  0
    7.4530   -0.4560   27.6150 O   0  0  0  0  0  0  0  0  0  0  0  0
    8.4125    0.2775   25.7500 C   0  0  0  0  0  0  0  0  0  0  0  0
    7.7030    1.4680   24.0150 C   0  0  0  0  0  0  0  0  0  0  0  0
    8.1720    2.4660   23.4420 O   0  0  0  0  0  0  0  0  0  0  0  0
    6.3360    0.9640   23.8050 N   0  0  0  0  0  0  0  0  0  0  0  0
    5.4800    0.8530   25.0320 C   0  0  0  0  0  0  0  0  0  0  0  0
    4.0500    0.3480   24.7320 C   0  0  0  0  0  0  0  0  0  0  0  0
    3.4750    1.0690   23.6570 O   0  0  0  0  0  0  0  0  0  0  0  0
    4.2210    1.0320   22.4570 C   0  0  0  0  0  0  0  0  0  0  0  0
    5.6140    1.6470   22.6990 C   0  0  0  0  0  0  0  0  0  0  0  0
    8.7900   -1.4080   25.8100 C   0  0  0  0  0  0  0  0  0  0  0  0
    7.9610   -2.2960   25.6070 O   0  0  0  0  0  0  0  0  0  0  0  0
   10.2555   -1.1480   24.5345 N   0  0  0  0  0  0  0  0  0  0  0  0
   10.6760   -2.6770   24.8000 C   0  0  0  0  0  0  0  0  0  0  0  0
   11.3635   -1.8760   23.1415 C   0  0  0  0  0  0  0  0  0  0  0  0
   12.4250   -1.2910   23.7650 N   0  0  0  0  0  0  0  0  0  0  0  0
   12.8285   -0.8775   22.4615 C   0  0  0  0  0  0  0  0  0  0  0  0
   13.2800   -1.3010   21.3800 C   0  0  0  0  0  0  0  0  0  0  0  0
   13.9850   -1.7380   20.5810 N   0  0  0  0  0  0  0  0  0  0  0  0
   12.7690    0.5130   22.9150 C   0  0  0  0  0  0  0  0  0  0  0  0
   11.9170    1.0940   23.8520 C   0  0  0  0  0  0  0  0  0  0  0  0
   11.2355    0.1695   24.2190 C   0  0  0  0  0  0  0  0  0  0  0  0
   10.4220    0.3460   25.3760 C   0  0  0  0  0  0  0  0  0  0  0  0
    5.8090    0.4760   29.0440 C   0  0  0  0  0  0  0  0  0  0  0  0
    5.3530    1.5210   29.8320 C   0  0  0  0  0  0  0  0  0  0  0  0
    4.9766    3.3958   31.6747 H   0  0  0  0  0  0  0  0  0  0  0  0
    4.4786    3.8020   30.8863 H   0  0  0  0  0  0  0  0  0  0  0  0
    5.9303    3.6949   31.8806 H   0  0  0  0  0  0  0  0  0  0  0  0
    7.8981    3.6961   29.4307 H   0  0  0  0  0  0  0  0  0  0  0  0
    8.7183    1.9106   28.0289 H   0  0  0  0  0  0  0  0  0  0  0  0
    6.9069   -0.7153   25.3732 H   0  0  0  0  0  0  0  0  0  0  0  0
    6.0009    0.1448   25.6932 H   0  0  0  0  0  0  0  0  0  0  0  0
    5.4355    1.8221   25.5468 H   0  0  0  0  0  0  0  0  0  0  0  0
    3.4231    0.4776   25.6075 H   0  0  0  0  0  0  0  0  0  0  0  0
    4.0772   -0.7018   24.4675 H   0  0  0  0  0  0  0  0  0  0  0  0
    3.6942    1.5955   21.7046 H   0  0  0  0  0  0  0  0  0  0  0  0
    4.3195    0.0049   22.1409 H   0  0  0  0  0  0  0  0  0  0  0  0
    6.1990    1.6052   21.7790 H   0  0  0  0  0  0  0  0  0  0  0  0
    5.5083    2.6940   23.0039 H   0  0  0  0  0  0  0  0  0  0  0  0
   10.0058   -3.1641   24.3934 H   0  0  0  0  0  0  0  0  0  0  0  0
   11.4921   -2.6832   25.2050 H   0  0  0  0  0  0  0  0  0  0  0  0
   10.5597   -1.2920   22.9238 H   0  0  0  0  0  0  0  0  0  0  0  0
   11.5799   -2.7329   22.6375 H   0  0  0  0  0  0  0  0  0  0  0  0
   13.5947    1.2307   22.3623 H   0  0  0  0  0  0  0  0  0  0  0  0
   11.9369    2.1572   24.1300 H   0  0  0  0  0  0  0  0  0  0  0  0
   10.8479    0.0507   26.1647 H   0  0  0  0  0  0  0  0  0  0  0  0
    9.5714    0.7228   25.1333 H   0  0  0  0  0  0  0  0  0  0  0  0
    5.2158   -0.4234   28.9393 H   0  0  0  0  0  0  0  0  0  0  0  0
    4.3833    1.4075   30.3443 H   0  0  0  0  0  0  0  0  0  0  0  0
  1  2  1  0
  2  3  4  0
  3  4  4  0
  4  5  4  0
  5  6  1  0
  6  7  1  0
  7  8  1  0
  8  9  2  0
  8 10  1  0
 10 11  1  0
 11 12  1  0
 12 13  1  0
 13 14  1  0
 14 15  1  0
  7 16  1  0
 16 17  2  0
 16 18  1  0
 18 19  1  0
 19 20  1  0
 20 21  1  0
 21 22  4  0
 22 23  1  0
 23 24  3  0
 22 25  4  0
 25 26  4  0
 26 27  4  0
 27 28  1  0
  5 29  4  0
 29 30  4  0
 30  2  4  0
 15 10  1  0
 28 18  1  0
 27 21  4  0
  1 31  1  0
  1 32  1  0
  1 33  1  0
  3 34  1  0
  4 35  1  0
  7 36  1  0
 11 37  1  0
 11 38  1  0
 12 39  1  0
 12 40  1  0
 14 41  1  0
 14 42  1  0
 15 43  1  0
 15 44  1  0
 19 45  1  0
 19 46  1  0
 20 47  1  0
 20 48  1  0
 25 49  1  0
 26 50  1  0
 28 51  1  0
 28 52  1  0
 29 53  1  0
 30 54  1  0
M  END
