LIG
     RDKit          3D

 39 42  0  0  0  0  0  0  0  0999 V2000
    7.2200  -17.5470   -3.0980 O   0  0  0  0  0  0  0  0  0  0  0  0
    7.6780  -18.6420   -3.0710 C   0  0  0  0  0  0  0  0  0  0  0  0
    8.7910  -19.0010   -4.0580 C   0  0  0  0  0  0  0  0  0  0  0  0
    9.2980  -17.7800   -4.6560 N   0  0  0  0  0  0  0  0  0  0  0  0
   10.0060  -16.8600   -4.0260 C   0  0  0  0  0  0  0  0  0  0  0  0
   10.2880  -15.8540   -4.9280 C   0  0  0  0  0  0  0  0  0  0  0  0
    9.7040  -16.2230   -6.1290 C   0  0  0  0  0  0  0  0  0  0  0  0
    9.1090  -17.3890   -5.9500 N   0  0  0  0  0  0  0  0  0  0  0  0
    7.1780  -19.6140   -2.1190 N   0  0  0  0  0  0  0  0  0  0  0  0
    6.3495  -19.6190   -1.3750 C   0  0  0  0  0  0  0  0  0  0  0  0
    5.3795  -20.5255   -0.8065 C   0  0  0  0  0  0  0  0  0  0  0  0
    5.8635  -21.7965   -0.7020 O   0  0  0  0  0  0  0  0  0  0  0  0
    7.1790  -21.9430   -1.0540 C   0  0  0  0  0  0  0  0  0  0  0  0
    7.7520  -23.3270   -1.1875 C   0  0  0  0  0  0  0  0  0  0  0  0
    9.0000  -23.3000   -0.0340 N   0  0  0  0  0  0  0  0  0  0  0  0
    9.4810  -24.6770    0.2020 C   0  0  0  0  0  0  0  0  0  0  0  0
   10.4520  -24.7780    1.4210 C   0  0  0  0  0  0  0  0  0  0  0  0
   11.5930  -23.9790    1.4950 C   0  0  0  0  0  0  0  0  0  0  0  0
   12.4420  -24.1020    2.5710 C   0  0  0  0  0  0  0  0  0  0  0  0
   12.1580  -25.0160    3.5810 C   0  0  0  0  0  0  0  0  0  0  0  0
   11.0290  -25.8120    3.5000 C   0  0  0  0  0  0  0  0  0  0  0  0
   10.7350  -26.7040    4.4690 F   0  0  0  0  0  0  0  0  0  0  0  0
   10.1740  -25.6950    2.4210 C   0  0  0  0  0  0  0  0  0  0  0  0
    7.6445  -20.8965   -1.9140 C   0  0  0  0  0  0  0  0  0  0  0  0
    9.6015  -19.4841   -3.5235 H   0  0  0  0  0  0  0  0  0  0  0  0
    8.4278  -19.6646   -4.8331 H   0  0  0  0  0  0  0  0  0  0  0  0
   10.2770  -16.9472   -2.9641 H   0  0  0  0  0  0  0  0  0  0  0  0
   10.8660  -14.9480   -4.7114 H   0  0  0  0  0  0  0  0  0  0  0  0
    9.6827  -15.7339   -7.0698 H   0  0  0  0  0  0  0  0  0  0  0  0
    4.4088  -20.3627   -0.4769 H   0  0  0  0  0  0  0  0  0  0  0  0
    7.1093  -24.0451   -0.8125 H   0  0  0  0  0  0  0  0  0  0  0  0
    8.2049  -23.5329   -2.0825 H   0  0  0  0  0  0  0  0  0  0  0  0
    9.6812  -22.7317   -0.4694 H   0  0  0  0  0  0  0  0  0  0  0  0
    8.6364  -25.3540    0.3984 H   0  0  0  0  0  0  0  0  0  0  0  0
   10.0029  -25.0800   -0.6781 H   0  0  0  0  0  0  0  0  0  0  0  0
   11.8135  -23.2709    0.7011 H   0  0  0  0  0  0  0  0  0  0  0  0
   13.3436  -23.4898    2.6363 H   0  0  0  0  0  0  0  0  0  0  0  0
   12.8246  -25.1151    4.4387 H   0  0  0  0  0  0  0  0  0  0  0  0
    9.2922  -26.3324    2.3771 H   0  0  0  0  0  0  0  0  0  0  0  0
  1  2  2  0
  2  3  1  0
  3  4  1  0
  4  5  4  0
  5  6  4  0
  6  7  4  0
  7  8  4  0
  2  9  1  0
  9 10  1  0
 10 11  4  0
 11 12  4  0
 12 13  4  0
 13 14  1  0
 14 15  1  0
 15 16  1  0
 16 17  1  0
 17 18  4  0
 18 19  4  0
 19 20  4  0
 20 21  4  0
 21 22  1  0
 21 23  4  0
 13 24  4  0
  8  4  4  0
 24  9  1  0
 24 10  4  0
 23 17  4  0
  3 25  1  0
  3 26  1  0
  5 27  1  0
  6 28  1  0
  7 29  1  0
 11 30  1  0
 14 31  1  0
 14 32  1  0
 15 33  1  0
 16 34  1  0
 16 35  1  0
 18 36  1  0
 19 37  1  0
 20 38  1  0
 23 39  1  0
M  END
