LIG
     RDKit          3D

 54 57  0  0  0  0  0  0  0  0999 V2000
    5.5720    3.8030   30.8520 C   0  0  0  0  0  0  0  0  0  0  0  0
    6.0790    2.6860   29.9860 C   0  0  0  0  0  0  0  0  0  0  0  0
    7.2890    2.7860   29.3270 C   0  0  0  0  0  0  0  0  0  0  0  0
    7.7660    1.7610   28.5270 C   0  0  0  0  0  0  0  0  0  0  0  0
    7.0230    0.5950   28.3850 C   0  0  0  0  0  0  0  0  0  0  0  0
    7.4530   -0.4560   27.6150 O   0  0  0  0  0  0  0  0  0  0  0  0
    8.3750   -0.1600   26.5780 C   0  0  0  0  0  0  0  0  0  0  0  0
    8.7900   -1.4080   25.8100 C   0  0  0  0  0  0  0  0  0  0  0  0
    7.9610   -2.2960   25.6070 O   0  0  0  0  0  0  0  0  0  0  0  0
    9.9920   -0.9290   25.1440 N   0  0  0  0  0  0  0  0  0  0  0  0
   10.6760   -2.6770   24.8000 C   0  0  0  0  0  0  0  0  0  0  0  0
   11.4450   -2.3540   23.5370 C   0  0  0  0  0  0  0  0  0  0  0  0
   12.0640   -1.4255   23.7165 N   0  0  0  0  0  0  0  0  0  0  0  0
   12.9650   -1.2405   22.5635 C   0  0  0  0  0  0  0  0  0  0  0  0
   13.6620   -0.2980   22.8050 C   0  0  0  0  0  0  0  0  0  0  0  0
   12.8830    1.0330   23.0360 C   0  0  0  0  0  0  0  0  0  0  0  0
   13.4330    2.2640   22.6290 C   0  0  0  0  0  0  0  0  0  0  0  0
   12.7210    3.4490   22.8300 C   0  0  0  0  0  0  0  0  0  0  0  0
   11.4520    3.3830   23.4380 C   0  0  0  0  0  0  0  0  0  0  0  0
   10.4990    4.8830   23.7330 S   0  0  0  0  0  6  0  0  0  0  0  0
   11.4660    6.2570   23.4610 N   0  0  0  0  0  0  0  0  0  0  0  0
    9.2550    4.9160   22.9600 O   0  0  0  0  0  0  0  0  0  0  0  0
    9.9890    4.8060   25.0960 O   0  0  0  0  0  0  0  0  0  0  0  0
   10.9030    2.1690   23.8360 C   0  0  0  0  0  0  0  0  0  0  0  0
   11.6200    0.9750   23.6290 C   0  0  0  0  0  0  0  0  0  0  0  0
   11.3900   -0.2110   24.1170 C   0  0  0  0  0  0  0  0  0  0  0  0
   11.0110   -0.3620   25.5050 C   0  0  0  0  0  0  0  0  0  0  0  0
    5.8090    0.4760   29.0440 C   0  0  0  0  0  0  0  0  0  0  0  0
    5.3530    1.5210   29.8320 C   0  0  0  0  0  0  0  0  0  0  0  0
    6.2486    4.6607   30.7893 H   0  0  0  0  0  0  0  0  0  0  0  0
    6.3098    4.0688   31.6163 H   0  0  0  0  0  0  0  0  0  0  0  0
    5.3818    4.7025   30.2570 H   0  0  0  0  0  0  0  0  0  0  0  0
    7.8976    3.6982   29.4287 H   0  0  0  0  0  0  0  0  0  0  0  0
    8.7140    1.8656   28.0125 H   0  0  0  0  0  0  0  0  0  0  0  0
    7.8403    0.4748   25.8811 H   0  0  0  0  0  0  0  0  0  0  0  0
    9.2338    0.3749   26.9568 H   0  0  0  0  0  0  0  0  0  0  0  0
   11.2135   -2.7829   25.6499 H   0  0  0  0  0  0  0  0  0  0  0  0
    9.7681   -3.1268   24.6901 H   0  0  0  0  0  0  0  0  0  0  0  0
   11.9767   -3.3266   23.2632 H   0  0  0  0  0  0  0  0  0  0  0  0
   10.6281   -2.3110   22.7427 H   0  0  0  0  0  0  0  0  0  0  0  0
   13.4446   -2.2377   22.3963 H   0  0  0  0  0  0  0  0  0  0  0  0
   12.2556   -1.1672   21.6966 H   0  0  0  0  0  0  0  0  0  0  0  0
   14.4369   -0.0081   21.9958 H   0  0  0  0  0  0  0  0  0  0  0  0
   14.3601   -0.3345   23.7353 H   0  0  0  0  0  0  0  0  0  0  0  0
   14.4074    2.2999   22.1521 H   0  0  0  0  0  0  0  0  0  0  0  0
   13.1389    4.3975   22.5201 H   0  0  0  0  0  0  0  0  0  0  0  0
   11.7860    6.6123   24.3603 H   0  0  0  0  0  0  0  0  0  0  0  0
   12.3829    6.1889   23.8923 H   0  0  0  0  0  0  0  0  0  0  0  0
    9.9254    2.1433   24.3110 H   0  0  0  0  0  0  0  0  0  0  0  0
   10.3031   -0.5461   23.5870 H   0  0  0  0  0  0  0  0  0  0  0  0
   10.9046    0.5767   25.9532 H   0  0  0  0  0  0  0  0  0  0  0  0
   11.6843   -1.0010   26.0000 H   0  0  0  0  0  0  0  0  0  0  0  0
    5.1834   -0.4028   28.9435 H   0  0  0  0  0  0  0  0  0  0  0  0
    4.3803    1.4129   30.3364 H   0  0  0  0  0  0  0  0  0  0  0  0
  1  2  1  0
  2  3  4  0
  3  4  4  0
  4  5  4  0
  5  6  1  0
  6  7  1  0
  7  8  1  0
  8  9  2  0
  8 10  1  0
 10 11  1  0
 11 12  1  0
 12 13  1  0
 13 14  1  0
 14 15  1  0
 15 16  1  0
 16 17  4  0
 17 18  4  0
 18 19  4  0
 19 20  1  0
 20 21  1  0
 20 22  2  0
 20 23  2  0
 19 24  4  0
 24 25  4  0
 25 26  1  0
 26 27  1  0
  5 28  4  0
 28 29  4  0
 29  2  4  0
 27 10  1  0
 26 13  1  0
 25 16  4  0
  1 30  1  0
  1 31  1  0
  1 32  1  0
  3 33  1  0
  4 34  1  0
  7 35  1  0
  7 36  1  0
 11 37  1  0
 11 38  1  0
 12 39  1  0
 12 40  1  0
 14 41  1  0
 14 42  1  0
 15 43  1  0
 15 44  1  0
 17 45  1  0
 18 46  1  0
 21 47  1  0
 21 48  1  0
 24 49  1  0
 26 50  1  0
 27 51  1  0
 27 52  1  0
 28 53  1  0
 29 54  1  0
M  END
