LIG
     RDKit          3D

 39 41  0  0  0  0  0  0  0  0999 V2000
   10.7620  -27.0230    3.8425 F   0  0  0  0  0  0  0  0  0  0  0  0
   11.4625  -26.2215    3.5150 C   0  0  0  0  0  0  0  0  0  0  0  0
   11.9980  -25.1200    3.4875 C   0  0  0  0  0  0  0  0  0  0  0  0
   12.7200  -24.3090    3.1305 C   0  0  0  0  0  0  0  0  0  0  0  0
   14.1570  -25.1990    4.0970 C   0  0  0  0  0  0  0  0  0  0  0  0
   14.1140  -26.5930    4.2030 C   0  0  0  0  0  0  0  0  0  0  0  0
   13.0090  -27.3300    3.9320 N   0  0  0  0  0  0  0  0  0  0  0  0
   11.5930  -23.9790    1.4950 C   0  0  0  0  0  0  0  0  0  0  0  0
   10.4520  -24.7780    1.4210 C   0  0  0  0  0  0  0  0  0  0  0  0
    9.4810  -24.6770    0.2020 C   0  0  0  0  0  0  0  0  0  0  0  0
    9.0000  -23.3000   -0.0340 N   0  0  0  0  0  0  0  0  0  0  0  0
    8.0790  -23.3150   -1.1050 C   0  0  0  0  0  0  0  0  0  0  0  0
    7.2540  -22.0210   -1.1510 C   0  0  0  0  0  0  0  0  0  0  0  0
    7.6000  -20.8310   -1.7870 C   0  0  0  0  0  0  0  0  0  0  0  0
    6.5650  -19.9320   -1.5760 C   0  0  0  0  0  0  0  0  0  0  0  0
    5.5790  -20.6070   -0.7990 C   0  0  0  0  0  0  0  0  0  0  0  0
    6.0190  -21.8390   -0.5760 O   0  0  0  0  0  0  0  0  0  0  0  0
   10.1740  -25.6950    2.4210 C   0  0  0  0  0  0  0  0  0  0  0  0
   10.8435  -24.3432    3.7151 H   0  0  0  0  0  0  0  0  0  0  0  0
   12.0252  -24.8820    4.8816 H   0  0  0  0  0  0  0  0  0  0  0  0
   12.5096  -23.3655    3.7528 H   0  0  0  0  0  0  0  0  0  0  0  0
   14.0641  -24.6248    5.0447 H   0  0  0  0  0  0  0  0  0  0  0  0
   15.0239  -24.7284    3.5851 H   0  0  0  0  0  0  0  0  0  0  0  0
   14.9946  -27.0456    3.5784 H   0  0  0  0  0  0  0  0  0  0  0  0
   14.5140  -26.9181    5.2591 H   0  0  0  0  0  0  0  0  0  0  0  0
   12.5235  -27.8032    4.6824 H   0  0  0  0  0  0  0  0  0  0  0  0
   11.4884  -22.9004    1.6696 H   0  0  0  0  0  0  0  0  0  0  0  0
   12.3999  -24.1013    0.7679 H   0  0  0  0  0  0  0  0  0  0  0  0
   11.2009  -25.7949    0.6902 H   0  0  0  0  0  0  0  0  0  0  0  0
    8.6407  -25.3479    0.3404 H   0  0  0  0  0  0  0  0  0  0  0  0
   10.0137  -24.9910   -0.6899 H   0  0  0  0  0  0  0  0  0  0  0  0
    9.7966  -22.7328   -0.2889 H   0  0  0  0  0  0  0  0  0  0  0  0
    7.3527  -24.1422   -1.0257 H   0  0  0  0  0  0  0  0  0  0  0  0
    8.5741  -23.4201   -2.0871 H   0  0  0  0  0  0  0  0  0  0  0  0
    8.5252  -20.6820   -2.3456 H   0  0  0  0  0  0  0  0  0  0  0  0
    6.4655  -18.9085   -1.9136 H   0  0  0  0  0  0  0  0  0  0  0  0
    4.6431  -20.3176   -0.4097 H   0  0  0  0  0  0  0  0  0  0  0  0
    9.7553  -26.7005    2.0916 H   0  0  0  0  0  0  0  0  0  0  0  0
    9.3845  -25.3856    3.1798 H   0  0  0  0  0  0  0  0  0  0  0  0
  1  2  1  0
  2  3  1  0
  3  4  1  0
  4  5  1  0
  5  6  1  0
  6  7  1  0
  4  8  1  0
  8  9  1  0
  9 10  1  0
 10 11  1  0
 11 12  1  0
 12 13  1  0
 13 14  4  0
 14 15  4  0
 15 16  4  0
 16 17  4  0
  9 18  1  0
  7  2  1  0
 17 13  4  0
 18  2  1  0
  3 19  1  0
  3 20  1  0
  4 21  1  0
  5 22  1  0
  5 23  1  0
  6 24  1  0
  6 25  1  0
  7 26  1  0
  8 27  1  0
  8 28  1  0
  9 29  1  0
 10 30  1  0
 10 31  1  0
 11 32  1  0
 12 33  1  0
 12 34  1  0
 14 35  1  0
 15 36  1  0
 16 37  1  0
 18 38  1  0
 18 39  1  0
M  END
