
     RDKit          3D

 54 57  0  0  0  0  0  0  0  0999 V2000
    5.3920    3.5340   30.8600 C   0  0  0  0  0  0  0  0  0  0  0  0
    5.9960    2.5700   29.8730 C   0  0  0  0  0  0  0  0  0  0  0  0
    7.0400    3.0220   29.0570 C   0  0  0  0  0  0  0  0  0  0  0  0
    7.6760    2.0710   28.0440 C   0  0  0  0  0  0  0  0  0  0  0  0
    7.1870    0.6770   27.9350 C   0  0  0  0  0  0  0  0  0  0  0  0
    7.8870   -0.0470   26.9800 O   0  0  0  0  0  0  0  0  0  0  0  0
    7.3710   -0.3300   25.6640 C   0  0  1  0  0  0  0  0  0  0  0  0
    7.3880    0.8320   24.6330 C   0  0  0  0  0  0  0  0  0  0  0  0
    8.3970    1.2770   24.0760 O   0  0  0  0  0  0  0  0  0  0  0  0
    6.1590    1.3600   24.3300 N   0  0  0  0  0  0  0  0  0  0  0  0
    5.1090    1.3910   25.3400 C   0  0  0  0  0  0  0  0  0  0  0  0
    3.9030    0.7270   24.7590 C   0  0  0  0  0  0  0  0  0  0  0  0
    3.5000    1.3460   23.5360 O   0  0  0  0  0  0  0  0  0  0  0  0
    4.5730    1.4850   22.5930 C   0  0  0  0  0  0  0  0  0  0  0  0
    5.7920    1.9670   23.0320 C   0  0  0  0  0  0  0  0  0  0  0  0
    8.0820   -1.4450   25.0920 C   0  0  0  0  0  0  0  0  0  0  0  0
    7.5550   -2.5600   25.0730 O   0  0  0  0  0  0  0  0  0  0  0  0
    9.3160   -1.2880   24.5750 N   0  0  0  0  0  0  0  0  0  0  0  0
   10.1040   -2.4280   24.2930 C   0  0  0  0  0  0  0  0  0  0  0  0
   10.8900   -2.2460   23.1760 C   0  0  0  0  0  0  0  0  0  0  0  0
   11.5550   -1.0460   23.2580 N   0  0  0  0  0  0  0  0  0  0  0  0
   12.6550   -0.6680   22.5080 C   0  0  0  0  0  0  0  0  0  0  0  0
   13.2010   -1.6190   21.5110 C   0  0  0  0  0  0  0  0  0  0  0  0
   13.4970   -2.3960   20.7610 N   0  0  0  0  0  0  0  0  0  0  0  0
   13.0250    0.6150   22.8740 C   0  0  0  0  0  0  0  0  0  0  0  0
   12.1080    0.9490   23.8300 C   0  0  0  0  0  0  0  0  0  0  0  0
   11.2170   -0.0490   24.0910 C   0  0  0  0  0  0  0  0  0  0  0  0
   10.0850   -0.0980   25.0630 C   0  0  0  0  0  0  0  0  0  0  0  0
    6.1390    0.2730   28.7720 C   0  0  0  0  0  0  0  0  0  0  0  0
    5.5440    1.2470   29.7510 C   0  0  0  0  0  0  0  0  0  0  0  0
    4.5270    3.1020   31.3680 H   0  0  0  0  0  0  0  0  0  0  0  0
    5.0620    4.4320   30.3300 H   0  0  0  0  0  0  0  0  0  0  0  0
    6.1450    3.8010   31.6040 H   0  0  0  0  0  0  0  0  0  0  0  0
    7.4100    4.0410   29.1270 H   0  0  0  0  0  0  0  0  0  0  0  0
    8.4780    2.3050   27.3650 H   0  0  0  0  0  0  0  0  0  0  0  0
    6.3330   -0.6830   25.7390 H   0  0  0  0  0  0  0  0  0  0  0  0
    5.5700    0.9840   26.2340 H   0  0  0  0  0  0  0  0  0  0  0  0
    4.8300    2.4230   25.5740 H   0  0  0  0  0  0  0  0  0  0  0  0
    3.0650    0.7860   25.4680 H   0  0  0  0  0  0  0  0  0  0  0  0
    4.1110   -0.3310   24.5630 H   0  0  0  0  0  0  0  0  0  0  0  0
    4.2110    2.1910   21.8420 H   0  0  0  0  0  0  0  0  0  0  0  0
    4.6320    0.5360   22.0680 H   0  0  0  0  0  0  0  0  0  0  0  0
    6.6060    1.7040   22.3540 H   0  0  0  0  0  0  0  0  0  0  0  0
    5.7490    3.0540   23.1180 H   0  0  0  0  0  0  0  0  0  0  0  0
    9.4290   -3.2820   24.3130 H   0  0  0  0  0  0  0  0  0  0  0  0
   10.8110   -2.5670   25.1000 H   0  0  0  0  0  0  0  0  0  0  0  0
   10.2640   -2.2530   22.2780 H   0  0  0  0  0  0  0  0  0  0  0  0
   11.6070   -3.0640   23.0790 H   0  0  0  0  0  0  0  0  0  0  0  0
   13.8350    1.2120   22.4980 H   0  0  0  0  0  0  0  0  0  0  0  0
   12.2020    1.9500   24.2590 H   0  0  0  0  0  0  0  0  0  0  0  0
   10.4670   -0.3170   26.0620 H   0  0  0  0  0  0  0  0  0  0  0  0
    9.4130    0.7580   25.1410 H   0  0  0  0  0  0  0  0  0  0  0  0
    5.7570   -0.7430   28.7180 H   0  0  0  0  0  0  0  0  0  0  0  0
    4.7290    0.8450   30.3630 H   0  0  0  0  0  0  0  0  0  0  0  0
  1  2  1  0
  2  3  2  0
  3  4  1  0
  4  5  2  0
  5  6  1  0
  6  7  1  0
  7  8  1  0
  8  9  2  0
  8 10  1  0
 10 11  1  0
 11 12  1  0
 12 13  1  0
 13 14  1  0
 10 15  1  0
 14 15  1  0
  7 16  1  0
 16 17  2  0
 16 18  1  0
 18 19  1  0
 19 20  1  0
 20 21  1  0
 21 22  1  0
 22 23  1  0
 23 24  3  0
 22 25  2  0
 25 26  1  0
 21 27  1  0
 26 27  2  0
 18 28  1  0
 27 28  1  0
  5 29  1  0
  2 30  1  0
 29 30  2  0
  1 31  1  0
  1 32  1  0
  1 33  1  0
  3 34  1  0
  4 35  1  0
  7 36  1  1
 11 37  1  0
 11 38  1  0
 12 39  1  0
 12 40  1  0
 14 41  1  0
 14 42  1  0
 15 43  1  0
 15 44  1  0
 19 45  1  0
 19 46  1  0
 20 47  1  0
 20 48  1  0
 25 49  1  0
 26 50  1  0
 28 51  1  0
 28 52  1  0
 29 53  1  0
 30 54  1  0
M  END
