
     RDKit          3D

 39 42  0  0  0  0  0  0  0  0999 V2000
    5.6960  -18.1400   -3.8220 O   0  0  0  0  0  0  0  0  0  0  0  0
    6.6510  -19.1340   -3.5160 C   0  0  0  0  0  0  0  0  0  0  0  0
    7.4370  -19.6260   -4.6830 C   0  0  0  0  0  0  0  0  0  0  0  0
    8.5960  -18.9790   -4.7490 N   0  0  0  0  0  0  0  0  0  0  0  0
    9.3060  -18.4700   -3.6420 C   0  0  0  0  0  0  0  0  0  0  0  0
   10.4940  -17.8470   -4.1870 C   0  0  0  0  0  0  0  0  0  0  0  0
   10.4150  -18.0350   -5.6250 C   0  0  0  0  0  0  0  0  0  0  0  0
    9.2000  -18.7570   -6.0710 N   0  0  0  0  0  0  0  0  0  0  0  0
    6.8440  -19.6900   -2.2830 N   0  0  0  0  0  0  0  0  0  0  0  0
    5.8360  -20.1220   -1.3540 C   0  0  0  0  0  0  0  0  0  0  0  0
    5.5360  -21.3480   -0.5160 C   0  0  0  0  0  0  0  0  0  0  0  0
    6.1840  -22.3870   -0.4210 O   0  0  0  0  0  0  0  0  0  0  0  0
    7.2450  -22.2700   -1.1720 C   0  0  0  0  0  0  0  0  0  0  0  0
    8.3760  -23.2610   -1.4020 C   0  0  0  0  0  0  0  0  0  0  0  0
    9.1990  -23.5170   -0.2990 N   0  0  0  0  0  0  0  0  0  0  0  0
    9.9110  -24.7380   -0.1220 C   0  0  0  0  0  0  0  0  0  0  0  0
   10.7340  -24.9140    1.0040 C   0  0  0  0  0  0  0  0  0  0  0  0
   11.9010  -24.1610    1.1550 C   0  0  0  0  0  0  0  0  0  0  0  0
   12.7170  -24.3470    2.2740 C   0  0  0  0  0  0  0  0  0  0  0  0
   12.4400  -25.2470    3.2820 C   0  0  0  0  0  0  0  0  0  0  0  0
   11.3040  -26.0600    3.2450 C   0  0  0  0  0  0  0  0  0  0  0  0
   11.0270  -26.9440    4.2180 F   0  0  0  0  0  0  0  0  0  0  0  0
   10.4250  -25.8460    1.9980 C   0  0  0  0  0  0  0  0  0  0  0  0
    7.3510  -20.9670   -1.9310 C   0  0  0  0  0  0  0  0  0  0  0  0
    7.5960  -20.7060   -4.5780 H   0  0  0  0  0  0  0  0  0  0  0  0
    6.8910  -19.4450   -5.6190 H   0  0  0  0  0  0  0  0  0  0  0  0
    9.0960  -18.4870   -2.5970 H   0  0  0  0  0  0  0  0  0  0  0  0
   11.2720  -17.3440   -3.6130 H   0  0  0  0  0  0  0  0  0  0  0  0
   11.2080  -17.6430   -6.2210 H   0  0  0  0  0  0  0  0  0  0  0  0
    4.6230  -21.2770    0.0680 H   0  0  0  0  0  0  0  0  0  0  0  0
    8.0870  -24.2320   -1.7950 H   0  0  0  0  0  0  0  0  0  0  0  0
    9.0080  -22.8280   -2.1850 H   0  0  0  0  0  0  0  0  0  0  0  0
    9.6540  -22.7070    0.1070 H   0  0  0  0  0  0  0  0  0  0  0  0
    9.1800  -25.5510   -0.1680 H   0  0  0  0  0  0  0  0  0  0  0  0
   10.5650  -24.8640   -0.9860 H   0  0  0  0  0  0  0  0  0  0  0  0
   12.1760  -23.4290    0.3990 H   0  0  0  0  0  0  0  0  0  0  0  0
   13.6370  -23.7950    2.4510 H   0  0  0  0  0  0  0  0  0  0  0  0
   13.1150  -25.3430    4.1400 H   0  0  0  0  0  0  0  0  0  0  0  0
    9.5330  -26.4470    1.8950 H   0  0  0  0  0  0  0  0  0  0  0  0
  1  2  2  0
  2  3  1  0
  3  4  1  0
  4  5  1  0
  5  6  2  0
  6  7  1  0
  4  8  1  0
  7  8  2  0
  2  9  1  0
  9 10  1  0
 10 11  2  0
 11 12  1  0
 12 13  1  0
 13 14  1  0
 14 15  1  0
 15 16  1  0
 16 17  1  0
 17 18  2  0
 18 19  1  0
 19 20  2  0
 20 21  1  0
 21 22  1  0
 17 23  1  0
 21 23  2  0
  9 24  1  0
 10 24  1  0
 13 24  2  0
  3 25  1  0
  3 26  1  0
  5 27  1  0
  6 28  1  0
  7 29  1  0
 11 30  1  0
 14 31  1  0
 14 32  1  0
 15 33  1  0
 16 34  1  0
 16 35  1  0
 18 36  1  0
 19 37  1  0
 20 38  1  0
 23 39  1  0
M  END
