
     RDKit          3D

 39 41  0  0  0  0  0  0  0  0999 V2000
    5.5580    3.6350   30.7740 C   0  0  0  0  0  0  0  0  0  0  0  0
    6.0880    2.5590   29.8670 C   0  0  0  0  0  0  0  0  0  0  0  0
    5.5310    1.2710   29.9470 C   0  0  0  0  0  0  0  0  0  0  0  0
    6.0640    0.1670   29.0350 C   0  0  0  0  0  0  0  0  0  0  0  0
    7.1630    0.5380   28.0950 C   0  0  0  0  0  0  0  0  0  0  0  0
    7.6280   -0.4820   27.2810 O   0  0  0  0  0  0  0  0  0  0  0  0
    8.2350   -0.1600   26.0100 C   0  0  1  0  0  0  0  0  0  0  0  0
    9.6920    0.0650   26.0710 N   0  0  0  0  0  0  0  0  0  0  0  0
   10.2190   -0.2320   24.7260 C   0  0  1  0  0  0  0  0  0  0  0  0
   11.6210   -0.4310   24.7250 C   0  0  0  0  0  0  0  0  0  0  0  0
   12.1770   -1.0980   23.6910 N   0  0  0  0  0  0  0  0  0  0  0  0
   12.7480   -0.4450   22.5660 C   0  0  0  0  0  0  0  0  0  0  0  0
   13.5210   -1.2340   21.5180 C   0  0  0  0  0  0  0  0  0  0  0  0
   12.8000   -2.3800   20.9740 N   0  0  0  0  0  0  0  0  0  0  0  0
   11.3570   -2.2560   23.3680 C   0  0  0  0  0  0  0  0  0  0  0  0
   10.0570   -2.4830   23.7780 C   0  0  0  0  0  0  0  0  0  0  0  0
    9.5200   -1.3510   24.4010 N   0  0  0  0  0  0  0  0  0  0  0  0
    8.2350   -1.4000   25.1180 C   0  0  0  0  0  0  0  0  0  0  0  0
    7.3760   -2.2580   25.0250 O   0  0  0  0  0  0  0  0  0  0  0  0
    7.6350    1.8410   28.0940 C   0  0  0  0  0  0  0  0  0  0  0  0
    7.1220    2.8400   28.9560 C   0  0  0  0  0  0  0  0  0  0  0  0
    6.3550    4.3050   31.1150 H   0  0  0  0  0  0  0  0  0  0  0  0
    4.8210    4.2330   30.2290 H   0  0  0  0  0  0  0  0  0  0  0  0
    5.0840    3.1710   31.6450 H   0  0  0  0  0  0  0  0  0  0  0  0
    4.7310    1.0450   30.6450 H   0  0  0  0  0  0  0  0  0  0  0  0
    5.7300   -0.8640   28.9940 H   0  0  0  0  0  0  0  0  0  0  0  0
    7.7130    0.6470   25.4760 H   0  0  0  0  0  0  0  0  0  0  0  0
   10.0660   -0.6040   26.7500 H   0  0  0  0  0  0  0  0  0  0  0  0
    9.8330    0.5420   24.0670 H   0  0  0  0  0  0  0  0  0  0  0  0
   11.8740   -0.9490   25.6300 H   0  0  0  0  0  0  0  0  0  0  0  0
   12.1820    0.5030   24.7160 H   0  0  0  0  0  0  0  0  0  0  0  0
   11.9510    0.1280   22.0970 H   0  0  0  0  0  0  0  0  0  0  0  0
   13.4300    0.3210   22.9670 H   0  0  0  0  0  0  0  0  0  0  0  0
   12.0510   -3.0620   23.6150 H   0  0  0  0  0  0  0  0  0  0  0  0
   11.2550   -2.2770   22.2790 H   0  0  0  0  0  0  0  0  0  0  0  0
    9.4440   -2.7300   22.9100 H   0  0  0  0  0  0  0  0  0  0  0  0
   10.0560   -3.3140   24.4840 H   0  0  0  0  0  0  0  0  0  0  0  0
    8.4290    2.0900   27.3970 H   0  0  0  0  0  0  0  0  0  0  0  0
    7.4840    3.8610   28.9660 H   0  0  0  0  0  0  0  0  0  0  0  0
  1  2  1  0
  2  3  2  0
  3  4  1  0
  4  5  2  0
  5  6  1  0
  6  7  1  0
  7  8  1  0
  8  9  1  0
  9 10  1  0
 10 11  1  0
 11 12  1  0
 12 13  1  0
 13 14  3  0
 11 15  1  0
 15 16  1  0
  9 17  1  0
 16 17  1  0
  7 18  1  0
 17 18  1  0
 18 19  2  0
  5 20  1  0
  2 21  1  0
 20 21  2  0
  1 22  1  0
  1 23  1  0
  1 24  1  0
  3 25  1  0
  4 26  1  0
  7 27  1  6
  8 28  1  0
  9 29  1  6
 10 30  1  0
 10 31  1  0
 12 32  1  0
 12 33  1  0
 15 34  1  0
 15 35  1  0
 16 36  1  0
 16 37  1  0
 20 38  1  0
 21 39  1  0
M  END
