
     RDKit          3D

 62 66  0  0  0  0  0  0  0  0999 V2000
    5.7110    3.8000   30.8660 C   0  0  0  0  0  0  0  0  0  0  0  0
    6.1140    2.6570   29.9760 C   0  0  0  0  0  0  0  0  0  0  0  0
    5.3170    1.4960   29.9770 C   0  0  0  0  0  0  0  0  0  0  0  0
    5.7020    0.3230   29.0850 C   0  0  0  0  0  0  0  0  0  0  0  0
    6.9240    0.5090   28.2610 C   0  0  0  0  0  0  0  0  0  0  0  0
    7.3350   -0.4960   27.4310 O   0  0  0  0  0  0  0  0  0  0  0  0
    8.1860   -0.1190   26.3530 C   0  0  0  0  0  0  0  0  0  0  0  0
    8.4280   -1.2900   25.4040 C   0  0  0  0  0  0  0  0  0  0  0  0
    7.5370   -2.1180   25.1860 O   0  0  0  0  0  0  0  0  0  0  0  0
    9.6980   -1.3970   24.8290 N   0  0  0  0  0  0  0  0  0  0  0  0
   10.3580   -2.6130   24.3670 C   0  0  0  0  0  0  0  0  0  0  0  0
   11.2050   -2.2250   23.1980 C   0  0  1  0  0  0  0  0  0  0  0  0
   10.4240   -1.5320   22.0980 C   0  0  0  0  0  0  0  0  0  0  0  0
   10.0210   -0.1950   22.2530 N   0  0  0  0  0  0  0  0  0  0  0  0
    8.8070    0.1420   21.5270 C   0  0  0  0  0  0  0  0  0  0  0  0
    8.6570    1.5040   21.0580 O   0  0  0  0  0  0  0  0  0  0  0  0
    7.7270   -0.6770   21.1880 C   0  0  0  0  0  0  0  0  0  0  0  0
    7.0930   -0.3000   20.0220 C   0  0  0  0  0  0  0  0  0  0  0  0
    7.3300   -0.5730   18.6870 C   0  0  0  0  0  0  0  0  0  0  0  0
    6.3900    0.0730   17.9220 N   0  0  0  0  0  0  0  0  0  0  0  0
    5.5040    0.7790   18.7340 C   0  0  0  0  0  0  0  0  0  0  0  0
    4.4320    1.5540   18.5050 N   0  0  0  0  0  0  0  0  0  0  0  0
    3.7570    2.1140   19.6810 C   0  0  0  0  0  0  0  0  0  0  0  0
    4.1590    1.8990   20.9920 C   0  0  0  0  0  0  0  0  0  0  0  0
    5.2690    1.1060   21.2110 C   0  0  0  0  0  0  0  0  0  0  0  0
    5.8640    0.5990   20.0560 C   0  0  0  0  0  0  0  0  0  0  0  0
   10.9370    0.7810   22.9520 C   0  0  0  0  0  0  0  0  0  0  0  0
   11.5130   -0.1250   24.0340 C   0  0  1  0  0  0  0  0  0  0  0  0
   10.6020   -0.2680   25.1800 C   0  0  0  0  0  0  0  0  0  0  0  0
   12.2570   -1.3530   23.7020 N   0  0  0  0  0  0  0  0  0  0  0  0
   13.3100   -1.2110   22.7480 C   0  0  0  0  0  0  0  0  0  0  0  0
    7.6550    1.6890   28.3210 C   0  0  0  0  0  0  0  0  0  0  0  0
    7.2610    2.7450   29.1600 C   0  0  0  0  0  0  0  0  0  0  0  0
    5.0340    4.4930   30.3560 H   0  0  0  0  0  0  0  0  0  0  0  0
    5.1940    3.4040   31.7450 H   0  0  0  0  0  0  0  0  0  0  0  0
    6.6060    4.3440   31.1770 H   0  0  0  0  0  0  0  0  0  0  0  0
    4.4300    1.4200   30.6020 H   0  0  0  0  0  0  0  0  0  0  0  0
    5.1910   -0.6300   28.9790 H   0  0  0  0  0  0  0  0  0  0  0  0
    9.1520    0.2580   26.7160 H   0  0  0  0  0  0  0  0  0  0  0  0
    7.7390    0.6990   25.7790 H   0  0  0  0  0  0  0  0  0  0  0  0
   11.0500   -3.0030   25.1160 H   0  0  0  0  0  0  0  0  0  0  0  0
    9.5670   -3.3450   24.2080 H   0  0  0  0  0  0  0  0  0  0  0  0
   11.6230   -3.1320   22.7630 H   0  0  0  0  0  0  0  0  0  0  0  0
    9.4880   -2.0830   21.9790 H   0  0  0  0  0  0  0  0  0  0  0  0
   10.8670   -1.5860   21.1160 H   0  0  0  0  0  0  0  0  0  0  0  0
    7.0860   -0.6250   22.0620 H   0  0  0  0  0  0  0  0  0  0  0  0
    7.9930   -1.7290   21.1740 H   0  0  0  0  0  0  0  0  0  0  0  0
    8.1620   -1.2120   18.3980 H   0  0  0  0  0  0  0  0  0  0  0  0
    6.3500    0.0390   16.9130 H   0  0  0  0  0  0  0  0  0  0  0  0
    2.8920    2.7300   19.4570 H   0  0  0  0  0  0  0  0  0  0  0  0
    3.6040    2.3500   21.8070 H   0  0  0  0  0  0  0  0  0  0  0  0
    5.6350    0.9020   22.2130 H   0  0  0  0  0  0  0  0  0  0  0  0
   10.3460    1.6120   23.3380 H   0  0  0  0  0  0  0  0  0  0  0  0
   11.7030    1.1610   22.2750 H   0  0  0  0  0  0  0  0  0  0  0  0
   12.0600    0.7110   24.5100 H   0  0  0  0  0  0  0  0  0  0  0  0
   11.1060   -0.5050   26.1000 H   0  0  0  0  0  0  0  0  0  0  0  0
    9.9740    0.5970   25.3380 H   0  0  0  0  0  0  0  0  0  0  0  0
   14.0760   -1.9960   22.8280 H   0  0  0  0  0  0  0  0  0  0  0  0
   12.8980   -1.2610   21.7350 H   0  0  0  0  0  0  0  0  0  0  0  0
   13.7840   -0.2280   22.8450 H   0  0  0  0  0  0  0  0  0  0  0  0
    8.5400    1.7860   27.7030 H   0  0  0  0  0  0  0  0  0  0  0  0
    7.8630    3.6520   29.1740 H   0  0  0  0  0  0  0  0  0  0  0  0
  1  2  1  0
  2  3  2  0
  3  4  1  0
  4  5  2  0
  5  6  1  0
  6  7  1  0
  7  8  1  0
  8  9  2  0
  8 10  1  0
 10 11  1  0
 11 12  1  0
 12 13  1  0
 13 14  1  0
 14 15  1  0
 15 16  2  0
 15 17  1  0
 17 18  1  0
 18 19  2  0
 19 20  1  0
 20 21  1  0
 21 22  1  0
 22 23  2  0
 23 24  1  0
 24 25  2  0
 18 26  1  0
 21 26  2  0
 25 26  1  0
 14 27  1  0
 27 28  1  0
 10 29  1  0
 28 29  1  0
 12 30  1  0
 28 30  1  0
 30 31  1  0
  5 32  1  0
  2 33  1  0
 32 33  2  0
  1 34  1  0
  1 35  1  0
  1 36  1  0
  3 37  1  0
  4 38  1  0
  7 39  1  0
  7 40  1  0
 11 41  1  0
 11 42  1  0
 12 43  1  6
 13 44  1  0
 13 45  1  0
 17 46  1  0
 17 47  1  0
 19 48  1  0
 20 49  1  0
 23 50  1  0
 24 51  1  0
 25 52  1  0
 27 53  1  0
 27 54  1  0
 28 55  1  1
 29 56  1  0
 29 57  1  0
 31 58  1  0
 31 59  1  0
 31 60  1  0
 32 61  1  0
 33 62  1  0
M  END
