
     RDKit          3D

 60 64  0  0  0  0  0  0  0  0999 V2000
   11.4090   -1.8330   21.6870 C   0  0  0  0  0  0  0  0  0  0  0  0
   12.5830   -0.9710   22.0600 C   0  0  0  0  0  0  0  0  0  0  0  0
   13.7690   -1.4590   21.7490 F   0  0  0  0  0  0  0  0  0  0  0  0
   12.5020    0.2970   22.6800 C   0  0  0  0  0  0  0  0  0  0  0  0
   11.1420    0.9110   23.0360 C   0  0  0  0  0  0  0  0  0  0  0  0
   10.0720    0.3680   22.1180 C   0  0  0  0  0  0  0  0  0  0  0  0
    9.3530   -0.7590   22.6060 N   0  0  0  0  0  0  0  0  0  0  0  0
    8.4140   -0.1830   23.5500 C   0  0  0  0  0  0  0  0  0  0  0  0
    8.7790   -0.7750   24.6830 N   0  0  2  0  0  0  0  0  0  0  0  0
    9.9910   -0.2630   25.1680 C   0  0  0  0  0  0  0  0  0  0  0  0
   11.2180   -0.3970   24.4640 C   0  0  1  0  0  0  0  0  0  0  0  0
   12.5580   -0.4970   25.1370 C   0  0  0  0  0  0  0  0  0  0  0  0
   13.2910   -1.6550   24.5540 C   0  0  0  0  0  0  0  0  0  0  0  0
   12.5650   -2.2080   23.6170 C   0  0  0  0  0  0  0  0  0  0  0  0
   12.9330   -3.1870   22.8490 F   0  0  0  0  0  0  0  0  0  0  0  0
   11.2950   -1.4830   23.6640 N   0  0  0  0  0  0  0  0  0  0  0  0
   10.0990   -1.9060   23.1810 C   0  0  1  0  0  0  0  0  0  0  0  0
    9.0640   -1.9520   24.0660 C   0  0  0  0  0  0  0  0  0  0  0  0
    8.1900   -2.9500   24.4980 C   0  0  0  0  0  0  0  0  0  0  0  0
    8.1630   -4.3080   24.1330 C   0  0  0  0  0  0  0  0  0  0  0  0
    7.3070   -2.3690   25.4410 O   0  0  0  0  0  0  0  0  0  0  0  0
    7.6970   -1.1120   25.5590 C   0  0  0  0  0  0  0  0  0  0  0  0
    7.1340   -0.1800   26.4030 C   0  0  0  0  0  0  0  0  0  0  0  0
    7.2230   -0.4110   27.7600 O   0  0  0  0  0  0  0  0  0  0  0  0
    6.8210    0.6270   28.5220 C   0  0  0  0  0  0  0  0  0  0  0  0
    7.6510    1.7560   28.5130 C   0  0  0  0  0  0  0  0  0  0  0  0
    7.3050    2.9840   29.3290 C   0  0  0  0  0  0  0  0  0  0  0  0
    5.9930    2.8310   30.1210 C   0  0  0  0  0  0  0  0  0  0  0  0
    5.6490    4.0400   30.9220 C   0  0  0  0  0  0  0  0  0  0  0  0
    5.2340    1.6580   30.0620 C   0  0  0  0  0  0  0  0  0  0  0  0
    5.6430    0.5710   29.2730 C   0  0  0  0  0  0  0  0  0  0  0  0
   11.0340   -2.4340   22.5130 H   0  0  0  0  0  0  0  0  0  0  0  0
   10.6010   -1.2150   21.3030 H   0  0  0  0  0  0  0  0  0  0  0  0
   11.7390   -2.5110   20.8980 H   0  0  0  0  0  0  0  0  0  0  0  0
   13.4030    0.8590   22.9100 H   0  0  0  0  0  0  0  0  0  0  0  0
   11.0570    1.9950   23.0020 H   0  0  0  0  0  0  0  0  0  0  0  0
   10.8960    0.6670   24.0700 H   0  0  0  0  0  0  0  0  0  0  0  0
   10.3830   -0.0510   21.2040 H   0  0  0  0  0  0  0  0  0  0  0  0
    9.3160    1.0820   21.8010 H   0  0  0  0  0  0  0  0  0  0  0  0
    7.3870   -0.2720   23.2270 H   0  0  0  0  0  0  0  0  0  0  0  0
    8.6010    0.8880   23.6270 H   0  0  0  0  0  0  0  0  0  0  0  0
    9.7150    0.7550   25.3540 H   0  0  0  0  0  0  0  0  0  0  0  0
   10.1720   -0.6760   26.1440 H   0  0  0  0  0  0  0  0  0  0  0  0
   11.2660    0.4410   23.7690 H   0  0  0  0  0  0  0  0  0  0  0  0
   13.0960    0.3160   24.6680 H   0  0  0  0  0  0  0  0  0  0  0  0
   12.6690   -0.3140   26.1740 H   0  0  0  0  0  0  0  0  0  0  0  0
   14.2800   -1.9810   24.8180 H   0  0  0  0  0  0  0  0  0  0  0  0
   10.0960   -2.8070   22.5570 H   0  0  0  0  0  0  0  0  0  0  0  0
    7.3210   -4.9700   24.2690 H   0  0  0  0  0  0  0  0  0  0  0  0
    8.9490   -4.8140   24.7000 H   0  0  0  0  0  0  0  0  0  0  0  0
    8.4280   -4.3820   23.0800 H   0  0  0  0  0  0  0  0  0  0  0  0
    6.1050    0.0150   26.0800 H   0  0  0  0  0  0  0  0  0  0  0  0
    7.6720    0.7500   26.2130 H   0  0  0  0  0  0  0  0  0  0  0  0
    8.5420    1.6680   27.8820 H   0  0  0  0  0  0  0  0  0  0  0  0
    7.9080    3.8840   29.3610 H   0  0  0  0  0  0  0  0  0  0  0  0
    6.5560    4.5690   31.2440 H   0  0  0  0  0  0  0  0  0  0  0  0
    5.0420    4.7210   30.3160 H   0  0  0  0  0  0  0  0  0  0  0  0
    5.0890    3.7610   31.8260 H   0  0  0  0  0  0  0  0  0  0  0  0
    4.3090    1.5850   30.6360 H   0  0  0  0  0  0  0  0  0  0  0  0
    5.0110   -0.3130   29.2670 H   0  0  0  0  0  0  0  0  0  0  0  0
  1  2  1  0
  2  3  1  0
  2  4  2  3
  4  5  1  0
  5  6  1  0
  6  7  1  0
  7  8  1  0
  8  9  1  0
  9 10  1  0
 10 11  1  0
 11 12  1  0
 12 13  1  0
 13 14  2  0
 14 15  1  0
 11 16  1  0
 14 16  1  0
  7 17  1  0
 16 17  1  0
  9 18  1  0
 17 18  1  0
 18 19  2  0
 19 20  1  0
 19 21  1  0
  9 22  1  1
 21 22  2  0
 22 23  1  0
 23 24  1  0
 24 25  1  0
 25 26  2  0
 26 27  1  0
 27 28  2  0
 28 29  1  0
 28 30  1  0
 25 31  1  0
 30 31  2  0
  1 32  1  0
  1 33  1  0
  1 34  1  0
  4 35  1  0
  5 36  1  0
  5 37  1  0
  6 38  1  0
  6 39  1  0
  8 40  1  0
  8 41  1  0
 10 42  1  0
 10 43  1  0
 11 44  1  6
 12 45  1  0
 12 46  1  0
 13 47  1  0
 17 48  1  6
 20 49  1  0
 20 50  1  0
 20 51  1  0
 23 52  1  0
 23 53  1  0
 26 54  1  0
 27 55  1  0
 29 56  1  0
 29 57  1  0
 29 58  1  0
 30 59  1  0
 31 60  1  0
M  CHG  2   9   1  21   1
M  END
