LIG
     RDKit          3D

 36 38  0  0  0  0  0  0  0  0999 V2000
    6.4340   -4.9520   26.5780 C   0  0  0  0  0  0  0  0  0  0  0  0
    8.0870   -4.3135   25.9810 C   0  0  0  0  0  0  0  0  0  0  0  0
    8.1960   -3.1850   24.9990 C   0  0  0  0  0  0  0  0  0  0  0  0
    9.4290   -2.8575   24.3585 N   0  0  0  0  0  0  0  0  0  0  0  0
    9.4545   -1.6240   23.7965 C   0  0  0  0  0  0  0  0  0  0  0  0
   10.8395   -1.1425   23.5295 C   0  0  0  0  0  0  0  0  0  0  0  0
   11.6495   -1.7400   22.5745 C   0  0  0  0  0  0  0  0  0  0  0  0
   13.0140   -1.1555   22.4445 S   0  0  0  0  0  0  0  0  0  0  0  0
   13.1845   -0.0615   23.4455 C   0  0  0  0  0  0  0  0  0  0  0  0
   12.0890    0.1895   24.2340 C   0  0  0  0  0  0  0  0  0  0  0  0
   10.9090   -0.0960   24.2540 C   0  0  0  0  0  0  0  0  0  0  0  0
   10.6550   -3.2590   25.2740 C   0  0  0  0  0  0  0  0  0  0  0  0
   10.4200   -4.6660   25.8330 C   0  0  0  0  0  0  0  0  0  0  0  0
    9.1325   -5.1285   26.3625 C   0  0  0  0  0  0  0  0  0  0  0  0
    8.9715   -3.8625   27.5105 O   0  0  0  0  0  0  0  0  0  0  0  0
    5.8955   -5.0231   25.6805 H   0  0  0  0  0  0  0  0  0  0  0  0
    6.6670   -5.8589   27.0334 H   0  0  0  0  0  0  0  0  0  0  0  0
    6.1150   -4.1881   27.2182 H   0  0  0  0  0  0  0  0  0  0  0  0
    8.1014   -3.5377   27.1334 H   0  0  0  0  0  0  0  0  0  0  0  0
    7.3748   -3.3133   24.2122 H   0  0  0  0  0  0  0  0  0  0  0  0
    7.8356   -2.2462   25.5335 H   0  0  0  0  0  0  0  0  0  0  0  0
    8.8733   -0.8657   24.3966 H   0  0  0  0  0  0  0  0  0  0  0  0
    8.9075   -1.6277   22.8136 H   0  0  0  0  0  0  0  0  0  0  0  0
   10.9976   -1.8035   21.5278 H   0  0  0  0  0  0  0  0  0  0  0  0
   11.6203   -2.9610   22.7474 H   0  0  0  0  0  0  0  0  0  0  0  0
   14.1833   -0.1438   24.1782 H   0  0  0  0  0  0  0  0  0  0  0  0
   13.5417    1.0207   22.9766 H   0  0  0  0  0  0  0  0  0  0  0  0
   11.8018    1.2281   23.4683 H   0  0  0  0  0  0  0  0  0  0  0  0
   10.3557   -0.1452   25.4336 H   0  0  0  0  0  0  0  0  0  0  0  0
   10.0518    0.8347   23.9502 H   0  0  0  0  0  0  0  0  0  0  0  0
   10.7142   -2.5553   26.0856 H   0  0  0  0  0  0  0  0  0  0  0  0
   11.5495   -3.1952   24.6800 H   0  0  0  0  0  0  0  0  0  0  0  0
   10.8172   -5.4084   25.0376 H   0  0  0  0  0  0  0  0  0  0  0  0
   11.2228   -4.8507   26.6427 H   0  0  0  0  0  0  0  0  0  0  0  0
    9.3153   -3.1478   25.9161 H   0  0  0  0  0  0  0  0  0  0  0  0
    8.0351   -3.7804   27.5008 H   0  0  0  0  0  0  0  0  0  0  0  0
  1  2  1  0
  2  3  1  0
  3  4  1  0
  4  5  1  0
  5  6  1  0
  6  7  1  0
  7  8  1  0
  8  9  1  0
  9 10  1  0
 10 11  1  0
  4 12  1  0
 12 13  1  0
 13 14  1  0
 14 15  1  0
 14  2  1  0
 10  6  1  0
 11  6  1  0
  1 16  1  0
  1 17  1  0
  1 18  1  0
  2 19  1  0
  3 20  1  0
  3 21  1  0
  5 22  1  0
  5 23  1  0
  7 24  1  0
  7 25  1  0
  9 26  1  0
  9 27  1  0
 10 28  1  0
 11 29  1  0
 11 30  1  0
 12 31  1  0
 12 32  1  0
 13 33  1  0
 13 34  1  0
 14 35  1  0
 15 36  1  0
M  END
