
     RDKit          3D

 43 45  0  0  0  0  0  0  0  0999 V2000
    8.6720    0.4350   21.4600 O   0  0  0  0  0  0  0  0  0  0  0  0
    8.3300   -0.8490   21.9900 C   0  0  0  0  0  0  0  0  0  0  0  0
    7.0650   -1.3460   21.4100 N   0  0  0  0  0  0  0  0  0  0  0  0
    6.5230   -0.4910   20.2780 C   0  0  0  0  0  0  0  0  0  0  0  0
    5.3870    0.2810   20.5630 C   0  0  0  0  0  0  0  0  0  0  0  0
    4.6740    1.2120   19.5640 C   0  0  0  0  0  0  0  0  0  0  0  0
    5.2700    1.2730   18.1880 C   0  0  0  0  0  0  0  0  0  0  0  0
    6.4740    0.4300   17.9480 N   0  0  0  0  0  0  0  0  0  0  0  0
    7.0720   -0.4290   18.9870 C   0  0  0  0  0  0  0  0  0  0  0  0
    9.2180   -1.4910   22.9570 N   0  0  0  0  0  0  0  0  0  0  0  0
   10.5500   -0.9850   22.9410 C   0  0  0  0  0  0  0  0  0  0  0  0
   11.5900   -1.6390   22.2510 C   0  0  0  0  0  0  0  0  0  0  0  0
   12.9920   -1.1020   22.2020 C   0  0  0  0  0  0  0  0  0  0  0  0
   13.1210    0.2020   22.9740 C   0  0  0  0  0  0  0  0  0  0  0  0
   12.0780    0.7980   23.6370 C   0  0  0  0  0  0  0  0  0  0  0  0
   10.8250    0.2110   23.6190 C   0  0  0  0  0  0  0  0  0  0  0  0
    9.0740   -2.6400   23.8070 N   0  0  0  0  0  0  0  0  0  0  0  0
    7.8900   -2.7090   24.6930 C   0  0  0  0  0  0  0  0  0  0  0  0
    7.8810   -3.9580   25.3430 C   0  0  0  0  0  0  0  0  0  0  0  0
    8.9720   -4.0800   26.2130 C   0  0  1  0  0  0  0  0  0  0  0  0
    8.9500   -5.2230   27.0530 O   0  0  0  0  0  0  0  0  0  0  0  0
   10.2590   -4.0380   25.4180 C   0  0  0  0  0  0  0  0  0  0  0  0
   10.3560   -2.9470   24.5360 C   0  0  0  0  0  0  0  0  0  0  0  0
    7.1230   -2.3480   21.2210 H   0  0  0  0  0  0  0  0  0  0  0  0
    4.9640    0.2240   21.5770 H   0  0  0  0  0  0  0  0  0  0  0  0
    3.7960    1.7890   19.8350 H   0  0  0  0  0  0  0  0  0  0  0  0
    4.8810    1.8860   17.3730 H   0  0  0  0  0  0  0  0  0  0  0  0
    7.9460   -0.9990   18.6850 H   0  0  0  0  0  0  0  0  0  0  0  0
   11.4750   -2.5730   21.6930 H   0  0  0  0  0  0  0  0  0  0  0  0
   13.8030   -1.5860   21.6770 H   0  0  0  0  0  0  0  0  0  0  0  0
   14.0850    0.7010   23.0080 H   0  0  0  0  0  0  0  0  0  0  0  0
   12.3170    1.7240   24.1430 H   0  0  0  0  0  0  0  0  0  0  0  0
   10.1220    0.8160   24.1910 H   0  0  0  0  0  0  0  0  0  0  0  0
    7.9980   -1.9880   25.5410 H   0  0  0  0  0  0  0  0  0  0  0  0
    7.0260   -2.4070   24.1090 H   0  0  0  0  0  0  0  0  0  0  0  0
    7.7080   -4.8010   24.6800 H   0  0  0  0  0  0  0  0  0  0  0  0
    6.9920   -3.9980   25.9830 H   0  0  0  0  0  0  0  0  0  0  0  0
    8.9510   -3.2440   26.8850 H   0  0  0  0  0  0  0  0  0  0  0  0
    8.2290   -5.1060   27.6970 H   0  0  0  0  0  0  0  0  0  0  0  0
   10.5140   -4.9790   24.9520 H   0  0  0  0  0  0  0  0  0  0  0  0
   11.0370   -3.9960   26.1750 H   0  0  0  0  0  0  0  0  0  0  0  0
   11.1140   -3.2270   23.8130 H   0  0  0  0  0  0  0  0  0  0  0  0
   10.7170   -2.0020   24.9450 H   0  0  0  0  0  0  0  0  0  0  0  0
  1  2  2  0
  2  3  1  0
  3  4  1  0
  4  5  2  0
  5  6  1  0
  6  7  2  0
  7  8  1  0
  4  9  1  0
  8  9  2  0
  2 10  1  0
 10 11  1  0
 11 12  2  0
 12 13  1  0
 13 14  2  0
 14 15  1  0
 11 16  1  0
 15 16  2  0
 10 17  1  0
 17 18  1  0
 18 19  1  0
 19 20  1  0
 20 21  1  0
 20 22  1  0
 17 23  1  0
 22 23  1  0
  3 24  1  0
  5 25  1  0
  6 26  1  0
  7 27  1  0
  9 28  1  0
 12 29  1  0
 13 30  1  0
 14 31  1  0
 15 32  1  0
 16 33  1  0
 18 34  1  0
 18 35  1  0
 19 36  1  0
 19 37  1  0
 20 38  1  1
 21 39  1  0
 22 40  1  0
 22 41  1  0
 23 42  1  0
 23 43  1  0
M  END
