
     RDKit          3D

 36 38  0  0  0  0  0  0  0  0999 V2000
    6.7530   -4.9350   26.2590 C   0  0  0  0  0  0  0  0  0  0  0  0
    7.9080   -4.0070   25.9840 C   0  0  2  0  0  0  0  0  0  0  0  0
    8.2590   -3.7830   24.6460 C   0  0  0  0  0  0  0  0  0  0  0  0
    9.4780   -2.9920   24.5240 N   0  0  0  0  0  0  0  0  0  0  0  0
    9.3470   -1.6500   23.9650 C   0  0  0  0  0  0  0  0  0  0  0  0
   10.5670   -1.1720   23.2380 C   0  0  2  0  0  0  0  0  0  0  0  0
   11.2680   -1.9190   22.3090 C   0  0  0  0  0  0  0  0  0  0  0  0
   12.9560   -1.4690   22.2790 S   0  0  0  0  0  0  0  0  0  0  0  0
   12.9850   -0.5770   23.7860 C   0  0  0  0  0  0  0  0  0  0  0  0
   11.6350   -0.2860   24.1160 C   0  0  1  0  0  0  0  0  0  0  0  0
   10.8050    0.2550   23.1970 C   0  0  0  0  0  0  0  0  0  0  0  0
   10.5980   -3.4140   25.2090 C   0  0  0  0  0  0  0  0  0  0  0  0
   10.2990   -4.5030   26.0140 C   0  0  0  0  0  0  0  0  0  0  0  0
    9.1380   -4.4580   26.7770 C   0  0  2  0  0  0  0  0  0  0  0  0
    8.9280   -5.7120   27.3890 O   0  0  0  0  0  0  0  0  0  0  0  0
    6.1480   -5.1060   25.3620 H   0  0  0  0  0  0  0  0  0  0  0  0
    7.1390   -5.9000   26.5950 H   0  0  0  0  0  0  0  0  0  0  0  0
    6.1200   -4.4990   27.0360 H   0  0  0  0  0  0  0  0  0  0  0  0
    7.6250   -3.0370   26.4040 H   0  0  0  0  0  0  0  0  0  0  0  0
    8.3950   -4.7160   24.0830 H   0  0  0  0  0  0  0  0  0  0  0  0
    7.4600   -3.2160   24.1600 H   0  0  0  0  0  0  0  0  0  0  0  0
    9.0930   -0.9500   24.7780 H   0  0  0  0  0  0  0  0  0  0  0  0
    8.4850   -1.6530   23.2860 H   0  0  0  0  0  0  0  0  0  0  0  0
   11.0290   -1.9620   21.2590 H   0  0  0  0  0  0  0  0  0  0  0  0
   11.2700   -2.9760   22.5640 H   0  0  0  0  0  0  0  0  0  0  0  0
   13.5690   -1.1510   24.5040 H   0  0  0  0  0  0  0  0  0  0  0  0
   13.4770    0.3690   23.5790 H   0  0  0  0  0  0  0  0  0  0  0  0
   11.4220   -0.0740   25.1640 H   0  0  0  0  0  0  0  0  0  0  0  0
   10.0730    0.9210   23.6560 H   0  0  0  0  0  0  0  0  0  0  0  0
   11.1960    0.7100   22.2940 H   0  0  0  0  0  0  0  0  0  0  0  0
   11.0310   -2.5420   25.6790 H   0  0  0  0  0  0  0  0  0  0  0  0
   11.3390   -3.7240   24.4620 H   0  0  0  0  0  0  0  0  0  0  0  0
   10.2720   -5.4010   25.4060 H   0  0  0  0  0  0  0  0  0  0  0  0
   11.1380   -4.6430   26.7030 H   0  0  0  0  0  0  0  0  0  0  0  0
    9.2940   -3.7770   27.6140 H   0  0  0  0  0  0  0  0  0  0  0  0
    8.2210   -5.6150   28.0500 H   0  0  0  0  0  0  0  0  0  0  0  0
  1  2  1  0
  2  3  1  0
  3  4  1  0
  4  5  1  0
  6  5  1  1
  6  7  1  0
  7  8  1  0
  8  9  1  0
  6 10  1  0
  9 10  1  0
  6 11  1  0
 10 11  1  0
  4 12  1  0
 12 13  1  0
  2 14  1  0
 13 14  1  0
 14 15  1  0
  1 16  1  0
  1 17  1  0
  1 18  1  0
  2 19  1  1
  3 20  1  0
  3 21  1  0
  5 22  1  0
  5 23  1  0
  7 24  1  0
  7 25  1  0
  9 26  1  0
  9 27  1  0
 10 28  1  1
 11 29  1  0
 11 30  1  0
 12 31  1  0
 12 32  1  0
 13 33  1  0
 13 34  1  0
 14 35  1  1
 15 36  1  0
M  END
