
     RDKit          3D

 39 41  0  0  0  0  0  0  0  0999 V2000
    8.8790    5.0390   22.5950 N   0  0  0  0  0  0  0  0  0  0  0  0
   10.0060    4.8860   23.8590 S   0  0  1  0  0  0  0  0  0  0  0  0
   11.0080    5.9240   23.6690 O   0  0  0  0  0  0  0  0  0  0  0  0
    9.1610    4.8730   25.0330 O   0  0  0  0  0  0  0  0  0  0  0  0
   10.7890    3.2700   23.5640 C   0  0  0  0  0  0  0  0  0  0  0  0
   12.1660    3.4510   23.0980 C   0  0  0  0  0  0  0  0  0  0  0  0
   12.9590    2.3840   22.8160 C   0  0  0  0  0  0  0  0  0  0  0  0
   12.3940    0.9800   22.9700 C   0  0  0  0  0  0  0  0  0  0  0  0
   13.2700   -0.4700   22.6250 S   0  0  0  0  0  0  0  0  0  0  0  0
   11.9760   -1.4400   23.0450 C   0  0  0  0  0  0  0  0  0  0  0  0
   10.8600   -0.7870   23.4540 C   0  0  0  0  0  0  0  0  0  0  0  0
    9.8020   -1.8220   23.8100 C   0  0  0  0  0  0  0  0  0  0  0  0
    9.4490   -2.7430   24.4460 N   0  0  0  0  0  0  0  0  0  0  0  0
    8.2550   -3.4200   24.3230 C   0  0  0  0  0  0  0  0  0  0  0  0
    7.9760   -4.4050   25.4350 C   0  0  0  0  0  0  0  0  0  0  0  0
    9.1050   -4.3830   26.4490 C   0  0  1  0  0  0  0  0  0  0  0  0
    8.9050   -5.4000   27.4180 O   0  0  0  0  0  0  0  0  0  0  0  0
   10.3200   -4.4030   25.8120 C   0  0  0  0  0  0  0  0  0  0  0  0
   10.5080   -3.4340   24.8100 C   0  0  0  0  0  0  0  0  0  0  0  0
   11.0600    0.7680   23.4210 C   0  0  0  0  0  0  0  0  0  0  0  0
   10.2710    1.9390   23.7200 C   0  0  0  0  0  0  0  0  0  0  0  0
    9.3470    5.0880   21.6840 H   0  0  0  0  0  0  0  0  0  0  0  0
    8.1910    4.2870   22.6490 H   0  0  0  0  0  0  0  0  0  0  0  0
   12.5830    4.4580   22.9760 H   0  0  0  0  0  0  0  0  0  0  0  0
   13.9710    2.5240   22.4890 H   0  0  0  0  0  0  0  0  0  0  0  0
   11.9240   -2.5370   23.0340 H   0  0  0  0  0  0  0  0  0  0  0  0
    8.9700   -1.1490   23.9940 H   0  0  0  0  0  0  0  0  0  0  0  0
    9.5080   -2.2560   22.8600 H   0  0  0  0  0  0  0  0  0  0  0  0
    8.2950   -4.0270   23.4110 H   0  0  0  0  0  0  0  0  0  0  0  0
    7.4850   -2.6670   24.1550 H   0  0  0  0  0  0  0  0  0  0  0  0
    7.0420   -4.1310   25.9430 H   0  0  0  0  0  0  0  0  0  0  0  0
    7.8510   -5.4140   25.0220 H   0  0  0  0  0  0  0  0  0  0  0  0
    9.0690   -3.5450   27.0930 H   0  0  0  0  0  0  0  0  0  0  0  0
    7.9610   -5.3990   27.6500 H   0  0  0  0  0  0  0  0  0  0  0  0
   11.0780   -4.1750   26.5550 H   0  0  0  0  0  0  0  0  0  0  0  0
   10.6010   -5.3580   25.3920 H   0  0  0  0  0  0  0  0  0  0  0  0
   11.3240   -2.8030   25.1750 H   0  0  0  0  0  0  0  0  0  0  0  0
   10.9310   -3.7760   23.8830 H   0  0  0  0  0  0  0  0  0  0  0  0
    9.2530    1.7250   24.0680 H   0  0  0  0  0  0  0  0  0  0  0  0
  2  1  1  6
  2  3  2  0
  2  4  2  0
  2  5  1  0
  5  6  2  0
  6  7  1  0
  7  8  2  0
  8  9  1  0
  9 10  1  0
 10 11  2  0
 11 12  1  0
 12 13  1  0
 13 14  1  0
 14 15  1  0
 15 16  1  0
 16 17  1  0
 16 18  1  0
 13 19  1  0
 18 19  1  0
  8 20  1  0
 11 20  1  0
  5 21  1  0
 20 21  2  0
  1 22  1  0
  1 23  1  0
  6 24  1  0
  7 25  1  0
 10 26  1  0
 12 27  1  0
 12 28  1  0
 14 29  1  0
 14 30  1  0
 15 31  1  0
 15 32  1  0
 16 33  1  1
 17 34  1  0
 18 35  1  0
 18 36  1  0
 19 37  1  0
 19 38  1  0
 21 39  1  0
M  END
