LIG
     RDKit          3D

 43 45  0  0  0  0  0  0  0  0999 V2000
    9.1440    0.7090   20.8350 O   0  0  0  0  0  0  0  0  0  0  0  0
    8.5920   -0.2080   21.3470 C   0  0  0  0  0  0  0  0  0  0  0  0
    7.2840   -0.6350   20.9180 N   0  0  0  0  0  0  0  0  0  0  0  0
    6.6030    0.0510   19.8530 C   0  0  0  0  0  0  0  0  0  0  0  0
    5.3980    0.6740   20.1340 C   0  0  0  0  0  0  0  0  0  0  0  0
    4.7680    1.3310   19.0890 C   0  0  0  0  0  0  0  0  0  0  0  0
    5.3600    1.2970   17.8310 C   0  0  0  0  0  0  0  0  0  0  0  0
    6.5100    0.7030   17.6230 N   0  0  0  0  0  0  0  0  0  0  0  0
    7.1440    0.0770   18.5790 C   0  0  0  0  0  0  0  0  0  0  0  0
    9.4655   -1.2175   23.3310 N   0  0  0  0  0  0  0  0  0  0  0  0
   10.7965   -0.7995   23.2425 C   0  0  0  0  0  0  0  0  0  0  0  0
   11.6890   -1.2785   22.3355 C   0  0  0  0  0  0  0  0  0  0  0  0
   13.0155   -0.6855   22.4005 C   0  0  0  0  0  0  0  0  0  0  0  0
   13.0545    0.2985   23.5285 C   0  0  0  0  0  0  0  0  0  0  0  0
   11.8700    0.4300   24.2605 C   0  0  0  0  0  0  0  0  0  0  0  0
   10.5550    0.3780   23.9180 C   0  0  0  0  0  0  0  0  0  0  0  0
    9.5440   -2.6880   24.5510 N   0  0  0  0  0  0  0  0  0  0  0  0
    8.3310   -2.8350   25.3360 C   0  0  0  0  0  0  0  0  0  0  0  0
    8.0790   -4.2690   25.8080 C   0  0  0  0  0  0  0  0  0  0  0  0
    9.1820   -4.8160   26.5550 C   0  0  0  0  0  0  0  0  0  0  0  0
    9.3040   -4.2150   27.8200 O   0  0  0  0  0  0  0  0  0  0  0  0
   10.4200   -4.6660   25.8330 C   0  0  0  0  0  0  0  0  0  0  0  0
   10.6550   -3.2590   25.2740 C   0  0  0  0  0  0  0  0  0  0  0  0
    6.9690   -1.4680   21.2409 H   0  0  0  0  0  0  0  0  0  0  0  0
    4.9437    0.6630   21.1021 H   0  0  0  0  0  0  0  0  0  0  0  0
    3.8340    1.8601   19.2411 H   0  0  0  0  0  0  0  0  0  0  0  0
    4.8815    1.7624   16.9833 H   0  0  0  0  0  0  0  0  0  0  0  0
    8.0607   -0.3915   18.3329 H   0  0  0  0  0  0  0  0  0  0  0  0
   11.5129   -2.0279   21.6286 H   0  0  0  0  0  0  0  0  0  0  0  0
   13.7751   -0.8779   21.8114 H   0  0  0  0  0  0  0  0  0  0  0  0
   13.9256    0.8386   23.7061 H   0  0  0  0  0  0  0  0  0  0  0  0
   12.0687    0.6446   25.4099 H   0  0  0  0  0  0  0  0  0  0  0  0
    9.8596    0.9322   24.0398 H   0  0  0  0  0  0  0  0  0  0  0  0
    8.4351   -2.2058   26.2210 H   0  0  0  0  0  0  0  0  0  0  0  0
    7.4571   -2.4653   24.8012 H   0  0  0  0  0  0  0  0  0  0  0  0
    7.8134   -4.9051   24.9325 H   0  0  0  0  0  0  0  0  0  0  0  0
    7.1394   -4.2729   26.4089 H   0  0  0  0  0  0  0  0  0  0  0  0
    9.4855   -3.0546   26.4006 H   0  0  0  0  0  0  0  0  0  0  0  0
   10.2357   -3.9608   27.9522 H   0  0  0  0  0  0  0  0  0  0  0  0
   10.5054   -5.4085   25.0011 H   0  0  0  0  0  0  0  0  0  0  0  0
   11.2968   -4.9314   26.4762 H   0  0  0  0  0  0  0  0  0  0  0  0
   11.5747   -3.2608   24.6744 H   0  0  0  0  0  0  0  0  0  0  0  0
   10.8688   -2.5988   26.1251 H   0  0  0  0  0  0  0  0  0  0  0  0
  1  2  2  0
  2  3  1  0
  3  4  1  0
  4  5  4  0
  5  6  4  0
  6  7  4  0
  7  8  4  0
  8  9  4  0
  2 10  1  0
 10 11  1  0
 11 12  4  0
 12 13  4  0
 13 14  4  0
 14 15  4  0
 15 16  4  0
 10 17  1  0
 17 18  1  0
 18 19  1  0
 19 20  1  0
 20 21  1  0
 20 22  1  0
 22 23  1  0
  9  4  4  0
 16 11  4  0
 23 17  1  0
  3 24  1  0
  5 25  1  0
  6 26  1  0
  7 27  1  0
  9 28  1  0
 12 29  1  0
 13 30  1  0
 14 31  1  0
 15 32  1  0
 16 33  1  0
 18 34  1  0
 18 35  1  0
 19 36  1  0
 19 37  1  0
 20 38  1  0
 21 39  1  0
 22 40  1  0
 22 41  1  0
 23 42  1  0
 23 43  1  0
M  END
