
     RDKit          3D

 57 60  0  0  0  0  0  0  0  0999 V2000
    7.6360    4.2500   22.1530 C   0  0  0  0  0  0  0  0  0  0  0  0
    7.1010    3.1670   23.0540 C   0  0  0  0  0  0  0  0  0  0  0  0
    5.9750    3.2210   23.5330 O   0  0  0  0  0  0  0  0  0  0  0  0
    7.9940    2.1430   23.3000 N   0  0  0  0  0  0  0  0  0  0  0  0
    7.6020    0.7230   23.3970 C   0  0  1  0  0  0  0  0  0  0  0  0
    6.2210    0.4420   22.7630 C   0  0  0  0  0  0  0  0  0  0  0  0
    6.1470    0.5280   21.2570 C   0  0  0  0  0  0  0  0  0  0  0  0
    6.8780   -0.3040   20.4020 C   0  0  0  0  0  0  0  0  0  0  0  0
    6.7570   -0.1840   18.8920 C   0  0  0  0  0  0  0  0  0  0  0  0
    5.8990    0.7730   18.3410 C   0  0  0  0  0  0  0  0  0  0  0  0
    5.8110    0.8600   17.1360 O   0  0  0  0  0  0  0  0  0  0  0  0
    5.1160    1.6650   19.2350 C   0  0  0  0  0  0  0  0  0  0  0  0
    5.2580    1.5220   20.7480 C   0  0  0  0  0  0  0  0  0  0  0  0
    8.7260   -0.0610   22.7750 C   0  0  0  0  0  0  0  0  0  0  0  0
    8.9220    0.2730   21.3990 O   0  0  0  0  0  0  0  0  0  0  0  0
    9.6650   -0.9890   23.4240 N   0  0  1  0  0  0  0  0  0  0  0  0
    9.3910   -2.0090   24.5330 N   0  0  0  0  0  0  0  0  0  0  0  0
    8.0990   -2.3460   24.9070 C   0  0  0  0  0  0  0  0  0  0  0  0
    7.9760   -3.6590   25.4370 C   0  0  0  0  0  0  0  0  0  0  0  0
    8.9870   -4.0470   26.3130 C   0  0  1  0  0  0  0  0  0  0  0  0
    8.7290   -5.3560   26.8250 O   0  0  0  0  0  0  0  0  0  0  0  0
   10.2350   -4.1300   25.6990 C   0  0  0  0  0  0  0  0  0  0  0  0
   10.2290   -3.2410   24.4520 C   0  0  0  0  0  0  0  0  0  0  0  0
   10.6300   -1.5400   22.4180 C   0  0  0  0  0  0  0  0  0  0  0  0
   11.2040   -1.6820   23.5910 C   0  0  1  0  0  0  0  0  0  0  0  0
   12.4940   -1.3250   23.9550 C   0  0  0  0  0  0  0  0  0  0  0  0
   13.4390   -2.5030   24.9800 Br  0  0  0  0  0  0  0  0  0  0  0  0
   12.8480    0.0240   23.4340 C   0  0  0  0  0  0  0  0  0  0  0  0
   11.6930    0.4990   22.5760 C   0  0  0  0  0  0  0  0  0  0  0  0
   10.8700   -0.1440   23.6730 C   0  0  0  0  0  0  0  0  0  0  0  0
    8.1890    5.0100   22.7130 H   0  0  0  0  0  0  0  0  0  0  0  0
    6.8050    4.7400   21.6380 H   0  0  0  0  0  0  0  0  0  0  0  0
    8.3060    3.7940   21.4210 H   0  0  0  0  0  0  0  0  0  0  0  0
    8.8070    2.4030   23.8540 H   0  0  0  0  0  0  0  0  0  0  0  0
    7.5800    0.4630   24.4620 H   0  0  0  0  0  0  0  0  0  0  0  0
    5.8590   -0.5350   23.0940 H   0  0  0  0  0  0  0  0  0  0  0  0
    5.5040    1.1600   23.1800 H   0  0  0  0  0  0  0  0  0  0  0  0
    7.5490   -1.0560   20.8340 H   0  0  0  0  0  0  0  0  0  0  0  0
    7.3400   -0.8470   18.2440 H   0  0  0  0  0  0  0  0  0  0  0  0
    6.4350    0.3240   16.5430 H   0  0  0  0  0  0  0  0  0  0  0  0
    4.4430    2.4180   18.8030 H   0  0  0  0  0  0  0  0  0  0  0  0
    4.6940    2.1620   21.4220 H   0  0  0  0  0  0  0  0  0  0  0  0
    7.7620   -1.5590   25.5770 H   0  0  0  0  0  0  0  0  0  0  0  0
    7.5000   -2.1750   24.0170 H   0  0  0  0  0  0  0  0  0  0  0  0
    7.8130   -4.3920   24.6480 H   0  0  0  0  0  0  0  0  0  0  0  0
    7.0730   -3.7780   26.0360 H   0  0  0  0  0  0  0  0  0  0  0  0
    8.8710   -3.4400   27.1950 H   0  0  0  0  0  0  0  0  0  0  0  0
    8.8920   -5.3410   27.7850 H   0  0  0  0  0  0  0  0  0  0  0  0
   10.4380   -5.1740   25.4360 H   0  0  0  0  0  0  0  0  0  0  0  0
   11.0310   -3.8100   26.3650 H   0  0  0  0  0  0  0  0  0  0  0  0
   11.2590   -3.0130   24.1830 H   0  0  0  0  0  0  0  0  0  0  0  0
    9.8030   -3.8090   23.6280 H   0  0  0  0  0  0  0  0  0  0  0  0
   11.1510   -0.8160   21.7880 H   0  0  0  0  0  0  0  0  0  0  0  0
   10.2800   -2.3680   21.8130 H   0  0  0  0  0  0  0  0  0  0  0  0
   10.7650   -2.2880   24.3720 H   0  0  0  0  0  0  0  0  0  0  0  0
   13.7460    0.5700   23.5640 H   0  0  0  0  0  0  0  0  0  0  0  0
   12.4280    1.2320   22.2870 H   0  0  0  0  0  0  0  0  0  0  0  0
  1  2  1  0
  2  3  2  0
  2  4  1  0
  4  5  1  0
  5  6  1  0
  6  7  1  0
  7  8  2  0
  8  9  1  0
  9 10  2  0
 10 11  1  0
 10 12  1  0
  7 13  1  0
 12 13  2  0
  5 14  1  0
 14 15  2  0
 16 14  1  6
 16 17  1  0
 17 18  1  0
 18 19  1  0
 19 20  1  0
 20 21  1  0
 20 22  1  0
 17 23  1  0
 22 23  1  0
 16 24  1  0
 24 25  1  0
 25 26  1  0
 26 27  1  0
 26 28  2  0
 28 29  1  0
 16 30  1  0
 25 30  1  0
 29 30  2  0
  1 31  1  0
  1 32  1  0
  1 33  1  0
  4 34  1  0
  5 35  1  1
  6 36  1  0
  6 37  1  0
  8 38  1  0
  9 39  1  0
 11 40  1  0
 12 41  1  0
 13 42  1  0
 18 43  1  0
 18 44  1  0
 19 45  1  0
 19 46  1  0
 20 47  1  1
 21 48  1  0
 22 49  1  0
 22 50  1  0
 23 51  1  0
 23 52  1  0
 24 53  1  0
 24 54  1  0
 25 55  1  1
 28 56  1  0
 29 57  1  0
M  CHG  1  16   1
M  END
