
     RDKit          3D

 42 44  0  0  0  0  0  0  0  0999 V2000
   10.2270    2.5720   22.4990 N   0  0  0  0  0  0  0  0  0  0  0  0
    9.5420    1.6440   22.7040 C   0  0  0  0  0  0  0  0  0  0  0  0
    8.8740    1.5090   21.4340 O   0  0  0  0  0  0  0  0  0  0  0  0
    8.8360    0.4870   23.4390 C   0  0  1  0  0  0  0  0  0  0  0  0
    7.4550    0.6130   23.2380 C   0  0  0  0  0  0  0  0  0  0  0  0
    7.1120   -0.4770   22.2270 C   0  0  0  0  0  0  0  0  0  0  0  0
    8.3620   -1.2860   22.1850 C   0  0  0  0  0  0  0  0  0  0  0  0
    9.1760   -0.9240   23.2200 C   0  0  1  0  0  0  0  0  0  0  0  0
   10.6630   -0.9690   22.8160 C   0  0  0  0  0  0  0  0  0  0  0  0
   11.5110    0.0860   23.1420 C   0  0  0  0  0  0  0  0  0  0  0  0
   12.9140   -0.0690   22.7180 C   0  0  0  0  0  0  0  0  0  0  0  0
   13.0950   -1.5510   21.9120 S   0  0  0  0  0  0  0  0  0  0  0  0
   11.4120   -1.9350   22.1280 C   0  0  0  0  0  0  0  0  0  0  0  0
    8.9310   -1.9690   24.1820 N   0  0  0  0  0  0  0  0  0  0  0  0
    7.5620   -2.1490   24.7030 C   0  0  0  0  0  0  0  0  0  0  0  0
    7.1820   -3.2900   25.4030 C   0  0  0  0  0  0  0  0  0  0  0  0
    8.2810   -3.8480   25.9660 C   0  0  1  0  0  0  0  0  0  0  0  0
    7.9650   -4.7580   26.7150 O   0  0  0  0  0  0  0  0  0  0  0  0
    9.1730   -4.2900   24.9910 C   0  0  0  0  0  0  0  0  0  0  0  0
    9.3020   -3.4020   23.8470 C   0  0  0  0  0  0  0  0  0  0  0  0
    9.8850    3.1120   21.6990 H   0  0  0  0  0  0  0  0  0  0  0  0
   10.5520    3.1690   23.2610 H   0  0  0  0  0  0  0  0  0  0  0  0
    8.9820    0.6630   24.5010 H   0  0  0  0  0  0  0  0  0  0  0  0
    7.0770    1.6020   22.9980 H   0  0  0  0  0  0  0  0  0  0  0  0
    6.9380    0.3650   24.1710 H   0  0  0  0  0  0  0  0  0  0  0  0
    6.8480   -0.0650   21.2470 H   0  0  0  0  0  0  0  0  0  0  0  0
    6.2580   -1.0750   22.5710 H   0  0  0  0  0  0  0  0  0  0  0  0
    8.8340   -1.3570   21.2060 H   0  0  0  0  0  0  0  0  0  0  0  0
    8.0660   -2.3230   22.3900 H   0  0  0  0  0  0  0  0  0  0  0  0
   11.1340    0.9380   23.6660 H   0  0  0  0  0  0  0  0  0  0  0  0
   13.6440    0.7190   22.9400 H   0  0  0  0  0  0  0  0  0  0  0  0
   11.0310   -2.8710   21.7410 H   0  0  0  0  0  0  0  0  0  0  0  0
    6.9550   -1.9280   23.8260 H   0  0  0  0  0  0  0  0  0  0  0  0
    7.3690   -1.3430   25.4140 H   0  0  0  0  0  0  0  0  0  0  0  0
    6.7380   -4.0200   24.7270 H   0  0  0  0  0  0  0  0  0  0  0  0
    6.4770   -3.0090   26.1930 H   0  0  0  0  0  0  0  0  0  0  0  0
    8.6780   -3.1390   26.6500 H   0  0  0  0  0  0  0  0  0  0  0  0
    7.1880   -5.1950   26.3260 H   0  0  0  0  0  0  0  0  0  0  0  0
    8.6730   -5.1730   24.5750 H   0  0  0  0  0  0  0  0  0  0  0  0
   10.0820   -4.7350   25.3720 H   0  0  0  0  0  0  0  0  0  0  0  0
   10.2480   -3.3900   23.3010 H   0  0  0  0  0  0  0  0  0  0  0  0
    8.6050   -3.7990   23.0970 H   0  0  0  0  0  0  0  0  0  0  0  0
  1  2  1  0
  2  3  2  0
  2  4  1  0
  4  5  1  0
  5  6  1  0
  6  7  1  0
  4  8  1  0
  7  8  1  0
  8  9  1  6
  9 10  1  0
 10 11  2  0
 11 12  1  0
  9 13  2  0
 12 13  1  0
  8 14  1  0
 14 15  1  0
 15 16  1  0
 16 17  1  0
 17 18  1  0
 17 19  1  0
 14 20  1  0
 19 20  1  0
  1 21  1  0
  1 22  1  0
  4 23  1  1
  5 24  1  0
  5 25  1  0
  6 26  1  0
  6 27  1  0
  7 28  1  0
  7 29  1  0
 10 30  1  0
 11 31  1  0
 13 32  1  0
 15 33  1  0
 15 34  1  0
 16 35  1  0
 16 36  1  0
 17 37  1  1
 18 38  1  0
 19 39  1  0
 19 40  1  0
 20 41  1  0
 20 42  1  0
M  END
