
     RDKit          3D

 48 50  0  0  0  0  0  0  0  0999 V2000
    9.0190    6.6770   22.5290 C   0  0  0  0  0  0  0  0  0  0  0  0
   10.1910    6.2320   23.3610 C   0  0  0  0  0  0  0  0  0  0  0  0
   10.2280    6.3740   24.5800 O   0  0  0  0  0  0  0  0  0  0  0  0
   11.1980    5.6600   22.6290 N   0  0  0  0  0  0  0  0  0  0  0  0
   12.2700    4.9560   23.3100 C   0  0  0  0  0  0  0  0  0  0  0  0
   12.5690    3.5900   22.6820 C   0  0  0  0  0  0  0  0  0  0  0  0
   11.5340    2.5350   22.9460 C   0  0  0  0  0  0  0  0  0  0  0  0
   10.2370    2.7620   23.3530 C   0  0  0  0  0  0  0  0  0  0  0  0
    9.5860    1.5520   23.4610 N   0  0  0  0  0  0  0  0  0  0  0  0
   10.4190    0.5000   23.1270 C   0  0  0  0  0  0  0  0  0  0  0  0
   10.1450   -0.9130   23.0810 C   0  0  0  0  0  0  0  0  0  0  0  0
    8.8170   -1.6170   23.4320 C   0  0  0  0  0  0  0  0  0  0  0  0
    8.7400   -2.4900   24.5600 N   0  0  0  0  0  0  0  0  0  0  0  0
    7.6290   -2.5650   25.5490 C   0  0  0  0  0  0  0  0  0  0  0  0
    7.0560   -3.7860   25.8710 C   0  0  0  0  0  0  0  0  0  0  0  0
    8.0180   -4.7160   26.1980 C   0  0  2  0  0  0  0  0  0  0  0  0
    8.4920   -4.4520   27.5140 O   0  0  0  0  0  0  0  0  0  0  0  0
    9.0650   -4.7740   25.3240 C   0  0  0  0  0  0  0  0  0  0  0  0
    9.1160   -3.8680   24.2320 C   0  0  0  0  0  0  0  0  0  0  0  0
   11.2260   -1.6810   22.6540 C   0  0  0  0  0  0  0  0  0  0  0  0
   12.5630   -1.0730   22.3310 C   0  0  0  0  0  0  0  0  0  0  0  0
   13.5570   -1.8520   21.9430 F   0  0  0  0  0  0  0  0  0  0  0  0
   12.7360    0.2820   22.4400 C   0  0  0  0  0  0  0  0  0  0  0  0
   11.6700    1.0990   22.8100 C   0  0  0  0  0  0  0  0  0  0  0  0
    9.3410    7.2040   21.6300 H   0  0  0  0  0  0  0  0  0  0  0  0
    8.4430    5.8000   22.2180 H   0  0  0  0  0  0  0  0  0  0  0  0
    8.3880    7.3450   23.1220 H   0  0  0  0  0  0  0  0  0  0  0  0
   10.9800    5.4260   21.6580 H   0  0  0  0  0  0  0  0  0  0  0  0
   13.1680    5.5860   23.2920 H   0  0  0  0  0  0  0  0  0  0  0  0
   11.9640    4.8480   24.3530 H   0  0  0  0  0  0  0  0  0  0  0  0
   12.6300    3.7460   21.6000 H   0  0  0  0  0  0  0  0  0  0  0  0
   13.5520    3.2310   22.9730 H   0  0  0  0  0  0  0  0  0  0  0  0
    9.7160    3.6860   23.5720 H   0  0  0  0  0  0  0  0  0  0  0  0
    8.6210    1.4400   23.7420 H   0  0  0  0  0  0  0  0  0  0  0  0
    8.0630   -0.8330   23.5730 H   0  0  0  0  0  0  0  0  0  0  0  0
    8.4960   -2.1330   22.5160 H   0  0  0  0  0  0  0  0  0  0  0  0
    8.0430   -2.2660   26.5050 H   0  0  0  0  0  0  0  0  0  0  0  0
    6.9360   -1.7670   25.2630 H   0  0  0  0  0  0  0  0  0  0  0  0
    6.4350   -3.7420   26.7670 H   0  0  0  0  0  0  0  0  0  0  0  0
    6.3220   -4.1400   25.1450 H   0  0  0  0  0  0  0  0  0  0  0  0
    7.6480   -5.7470   26.2450 H   0  0  0  0  0  0  0  0  0  0  0  0
    7.8200   -3.9070   27.9570 H   0  0  0  0  0  0  0  0  0  0  0  0
    9.9950   -4.7580   25.8630 H   0  0  0  0  0  0  0  0  0  0  0  0
    9.0280   -5.7820   24.9200 H   0  0  0  0  0  0  0  0  0  0  0  0
   10.1030   -3.8810   23.7890 H   0  0  0  0  0  0  0  0  0  0  0  0
    8.4410   -4.2650   23.4610 H   0  0  0  0  0  0  0  0  0  0  0  0
   11.1910   -2.7700   22.5370 H   0  0  0  0  0  0  0  0  0  0  0  0
   13.7030    0.6950   22.2140 H   0  0  0  0  0  0  0  0  0  0  0  0
  1  2  1  0
  2  3  2  0
  2  4  1  0
  4  5  1  0
  5  6  1  0
  6  7  1  0
  7  8  2  0
  8  9  1  0
  9 10  1  0
 10 11  1  0
 11 12  1  0
 12 13  1  0
 13 14  1  0
 14 15  1  0
 15 16  1  0
 16 17  1  0
 16 18  1  0
 13 19  1  0
 18 19  1  0
 11 20  2  0
 20 21  1  0
 21 22  1  0
 21 23  2  0
  7 24  1  0
 10 24  2  0
 23 24  1  0
  1 25  1  0
  1 26  1  0
  1 27  1  0
  4 28  1  0
  5 29  1  0
  5 30  1  0
  6 31  1  0
  6 32  1  0
  8 33  1  0
  9 34  1  0
 12 35  1  0
 12 36  1  0
 14 37  1  0
 14 38  1  0
 15 39  1  0
 15 40  1  0
 16 41  1  1
 17 42  1  0
 18 43  1  0
 18 44  1  0
 19 45  1  0
 19 46  1  0
 20 47  1  0
 23 48  1  0
M  END
