
     RDKit          3D

 53 56  0  0  0  0  0  0  0  0999 V2000
   13.0900   -1.3030   22.0010 C   0  0  0  0  0  0  0  0  0  0  0  0
   11.8900   -1.0900   22.7950 N   0  0  0  0  0  0  0  0  0  0  0  0
   11.5040    0.3150   23.0030 C   0  0  0  0  0  0  0  0  0  0  0  0
   10.1250    0.4730   23.3580 C   0  0  0  0  0  0  0  0  0  0  0  0
    9.2130   -0.4110   22.9350 N   0  0  0  0  0  0  0  0  0  0  0  0
    8.6790    0.0340   21.6590 C   0  0  0  0  0  0  0  0  0  0  0  0
    8.9310    1.3580   21.1800 O   0  0  0  0  0  0  0  0  0  0  0  0
    7.8600   -0.9630   20.9620 C   0  0  0  0  0  0  0  0  0  0  0  0
    7.0400   -0.4060   20.0430 C   0  0  0  0  0  0  0  0  0  0  0  0
    7.3470   -0.7050   18.6290 C   0  0  0  0  0  0  0  0  0  0  0  0
    6.3380    0.0350   17.8630 N   0  0  0  0  0  0  0  0  0  0  0  0
    5.4290    0.7620   18.8100 C   0  0  0  0  0  0  0  0  0  0  0  0
    4.3870    1.5390   18.4290 N   0  0  0  0  0  0  0  0  0  0  0  0
    3.7320    2.0660   19.4810 C   0  0  0  0  0  0  0  0  0  0  0  0
    4.1230    1.8200   20.9140 C   0  0  0  0  0  0  0  0  0  0  0  0
    5.1920    1.0260   21.1840 C   0  0  0  0  0  0  0  0  0  0  0  0
    5.9020    0.4530   20.1410 C   0  0  0  0  0  0  0  0  0  0  0  0
    9.5630   -1.6870   23.3980 C   0  0  1  0  0  0  0  0  0  0  0  0
    8.6850   -2.6930   23.8550 N   0  0  0  0  0  0  0  0  0  0  0  0
    9.3510   -3.7250   24.4730 C   0  0  0  0  0  0  0  0  0  0  0  0
    8.6690   -4.8570   24.9040 C   0  0  0  0  0  0  0  0  0  0  0  0
    7.8320   -4.3570   26.0260 C   0  0  1  0  0  0  0  0  0  0  0  0
    8.4840   -4.5930   27.2800 O   0  0  0  0  0  0  0  0  0  0  0  0
    7.4990   -3.0200   25.9320 C   0  0  0  0  0  0  0  0  0  0  0  0
    7.5710   -2.2590   24.7230 C   0  0  0  0  0  0  0  0  0  0  0  0
   10.7300   -2.0260   22.4710 C   0  0  0  0  0  0  0  0  0  0  0  0
   13.7810   -1.9490   22.5400 H   0  0  0  0  0  0  0  0  0  0  0  0
   12.8600   -1.7880   21.0470 H   0  0  0  0  0  0  0  0  0  0  0  0
   13.5820   -0.3490   21.8160 H   0  0  0  0  0  0  0  0  0  0  0  0
   12.1240    0.7270   23.7990 H   0  0  0  0  0  0  0  0  0  0  0  0
   11.7140    0.8900   22.1190 H   0  0  0  0  0  0  0  0  0  0  0  0
   10.0240    0.3720   24.4030 H   0  0  0  0  0  0  0  0  0  0  0  0
    9.7990    1.4970   23.1330 H   0  0  0  0  0  0  0  0  0  0  0  0
    8.4260   -1.8240   20.6370 H   0  0  0  0  0  0  0  0  0  0  0  0
    7.1860   -1.3830   21.7170 H   0  0  0  0  0  0  0  0  0  0  0  0
    8.1390   -1.3290   18.2300 H   0  0  0  0  0  0  0  0  0  0  0  0
    6.2320    0.0790   16.8610 H   0  0  0  0  0  0  0  0  0  0  0  0
    2.8630    2.7180   19.3280 H   0  0  0  0  0  0  0  0  0  0  0  0
    3.5560    2.2780   21.7330 H   0  0  0  0  0  0  0  0  0  0  0  0
    5.5100    0.8270   22.2090 H   0  0  0  0  0  0  0  0  0  0  0  0
   10.0730   -1.3210   24.2590 H   0  0  0  0  0  0  0  0  0  0  0  0
    9.6460   -3.3800   25.4370 H   0  0  0  0  0  0  0  0  0  0  0  0
   10.2520   -3.8340   23.8840 H   0  0  0  0  0  0  0  0  0  0  0  0
    8.0450   -5.4910   24.2870 H   0  0  0  0  0  0  0  0  0  0  0  0
    9.4080   -5.5600   25.3110 H   0  0  0  0  0  0  0  0  0  0  0  0
    6.9150   -4.9520   26.0710 H   0  0  0  0  0  0  0  0  0  0  0  0
    8.0230   -5.3230   27.7290 H   0  0  0  0  0  0  0  0  0  0  0  0
    8.1510   -2.5380   26.6530 H   0  0  0  0  0  0  0  0  0  0  0  0
    6.4910   -2.8960   26.3450 H   0  0  0  0  0  0  0  0  0  0  0  0
    6.6320   -2.4200   24.1780 H   0  0  0  0  0  0  0  0  0  0  0  0
    7.6160   -1.1780   24.8180 H   0  0  0  0  0  0  0  0  0  0  0  0
   11.0130   -3.0600   22.6140 H   0  0  0  0  0  0  0  0  0  0  0  0
   10.4540   -1.8920   21.4190 H   0  0  0  0  0  0  0  0  0  0  0  0
  1  2  1  0
  2  3  1  0
  3  4  1  0
  4  5  1  0
  5  6  1  0
  6  7  2  0
  6  8  1  0
  8  9  1  0
  9 10  2  0
 10 11  1  0
 11 12  1  0
 12 13  1  0
 13 14  2  0
 14 15  1  0
 15 16  2  0
  9 17  1  0
 12 17  2  0
 16 17  1  0
  5 18  1  0
 18 19  1  0
 19 20  1  0
 20 21  1  0
 21 22  1  0
 22 23  1  0
 22 24  1  0
 19 25  1  0
 24 25  1  0
  2 26  1  0
 18 26  1  0
  1 27  1  0
  1 28  1  0
  1 29  1  0
  3 30  1  0
  3 31  1  0
  4 32  1  0
  4 33  1  0
  8 34  1  0
  8 35  1  0
 10 36  1  0
 11 37  1  0
 14 38  1  0
 15 39  1  0
 16 40  1  0
 18 41  1  1
 20 42  1  0
 20 43  1  0
 21 44  1  0
 21 45  1  0
 22 46  1  1
 23 47  1  0
 24 48  1  0
 24 49  1  0
 25 50  1  0
 25 51  1  0
 26 52  1  0
 26 53  1  0
M  END
