LIG
     RDKit          3D

 57 60  0  0  0  0  0  0  0  0999 V2000
    7.6470    4.9230   22.5630 C   0  0  0  0  0  0  0  0  0  0  0  0
    7.2040    3.5440   22.9320 C   0  0  0  0  0  0  0  0  0  0  0  0
    6.2270    3.3360   23.6430 O   0  0  0  0  0  0  0  0  0  0  0  0
    7.9040    2.5380   22.4150 N   0  0  0  0  0  0  0  0  0  0  0  0
    7.7770    1.1690   22.8930 C   0  0  1  0  0  0  0  0  0  0  0  0
    6.4470    0.5230   22.4720 C   0  0  0  0  0  0  0  0  0  0  0  0
    6.2110    0.5770   20.9840 C   0  0  0  0  0  0  0  0  0  0  0  0
    6.8970   -0.2650   20.1240 C   0  0  0  0  0  0  0  0  0  0  0  0
    6.7140   -0.2030   18.7560 C   0  0  0  0  0  0  0  0  0  0  0  0
    5.8250    0.7090   18.2260 C   0  0  0  0  0  0  0  0  0  0  0  0
    5.6740    0.7690   16.8820 O   0  0  0  0  0  0  0  0  0  0  0  0
    5.1270    1.5650   19.0620 C   0  0  0  0  0  0  0  0  0  0  0  0
    5.3260    1.4920   20.4300 C   0  0  0  0  0  0  0  0  0  0  0  0
    8.9700    0.4030   22.3370 C   0  0  0  0  0  0  0  0  0  0  0  0
    9.8170    0.9750   21.6560 O   0  0  0  0  0  0  0  0  0  0  0  0
    9.3560   -1.1985   23.4265 N   0  0  0  0  0  4  0  0  0  0  0  0
    9.5440   -2.6880   24.5510 N   0  0  0  0  0  0  0  0  0  0  0  0
    8.3310   -2.8350   25.3360 C   0  0  0  0  0  0  0  0  0  0  0  0
    8.0790   -4.2690   25.8080 C   0  0  0  0  0  0  0  0  0  0  0  0
    9.1820   -4.8160   26.5550 C   0  0  0  0  0  0  0  0  0  0  0  0
    9.3040   -4.2150   27.8200 O   0  0  0  0  0  0  0  0  0  0  0  0
   10.4200   -4.6660   25.8330 C   0  0  0  0  0  0  0  0  0  0  0  0
   10.6550   -3.2590   25.2740 C   0  0  0  0  0  0  0  0  0  0  0  0
   11.0750   -1.1430   23.6660 C   0  0  0  0  0  0  0  0  0  0  0  0
   11.9800   -0.0310   24.1900 C   0  0  0  0  0  0  0  0  0  0  0  0
   13.1900    0.0200   23.4210 C   0  0  0  0  0  0  0  0  0  0  0  0
   13.1428    0.4086   21.6182 Br  0  0  0  0  0  0  0  0  0  0  0  0
   12.9785    0.4419   22.1447 C   0  0  0  0  0  0  0  0  0  0  0  0
   11.5498    0.4762   21.8569 C   0  0  0  0  0  0  0  0  0  0  0  0
    9.9110   -1.7790   21.8910 C   0  0  0  0  0  0  0  0  0  0  0  0
    7.9701    5.4523   23.4650 H   0  0  0  0  0  0  0  0  0  0  0  0
    8.4802    4.8585   21.8565 H   0  0  0  0  0  0  0  0  0  0  0  0
    8.6966    5.0948   22.8245 H   0  0  0  0  0  0  0  0  0  0  0  0
    8.8249    2.7936   21.9942 H   0  0  0  0  0  0  0  0  0  0  0  0
    7.8388    1.1766   23.9601 H   0  0  0  0  0  0  0  0  0  0  0  0
    6.4102   -0.5094   22.8025 H   0  0  0  0  0  0  0  0  0  0  0  0
    5.6277    1.0387   22.9679 H   0  0  0  0  0  0  0  0  0  0  0  0
    7.6193   -0.9974   20.5144 H   0  0  0  0  0  0  0  0  0  0  0  0
    7.2765   -0.8590   18.0909 H   0  0  0  0  0  0  0  0  0  0  0  0
    6.5033    0.5098   16.4453 H   0  0  0  0  0  0  0  0  0  0  0  0
    4.4346    2.2975   18.6515 H   0  0  0  0  0  0  0  0  0  0  0  0
    4.7805    2.1995   21.0636 H   0  0  0  0  0  0  0  0  0  0  0  0
    8.4449   -2.2107   26.2303 H   0  0  0  0  0  0  0  0  0  0  0  0
    7.4380   -2.4425   24.8576 H   0  0  0  0  0  0  0  0  0  0  0  0
    7.8025   -4.9024   24.9312 H   0  0  0  0  0  0  0  0  0  0  0  0
    7.1424   -4.2731   26.4161 H   0  0  0  0  0  0  0  0  0  0  0  0
    9.4903   -3.0648   26.4003 H   0  0  0  0  0  0  0  0  0  0  0  0
    9.6875   -3.3230   27.7435 H   0  0  0  0  0  0  0  0  0  0  0  0
   10.5087   -5.4095   25.0025 H   0  0  0  0  0  0  0  0  0  0  0  0
   11.2943   -4.9303   26.4793 H   0  0  0  0  0  0  0  0  0  0  0  0
   10.8835   -2.6008   26.1308 H   0  0  0  0  0  0  0  0  0  0  0  0
   11.5837   -3.2773   24.6765 H   0  0  0  0  0  0  0  0  0  0  0  0
   11.5699   -1.6265   22.5931 H   0  0  0  0  0  0  0  0  0  0  0  0
   11.3316   -2.2685   24.2257 H   0  0  0  0  0  0  0  0  0  0  0  0
   11.0689    0.6990   23.8054 H   0  0  0  0  0  0  0  0  0  0  0  0
   13.7360    0.6114   21.3889 H   0  0  0  0  0  0  0  0  0  0  0  0
   11.1131    0.5199   20.8706 H   0  0  0  0  0  0  0  0  0  0  0  0
  1  2  1  0
  2  3  2  0
  2  4  1  0
  4  5  1  0
  5  6  1  0
  6  7  1  0
  7  8  4  0
  8  9  4  0
  9 10  4  0
 10 11  1  0
 10 12  4  0
 12 13  4  0
  5 14  1  0
 14 15  2  0
 14 16  1  0
 16 17  1  0
 17 18  1  0
 18 19  1  0
 19 20  1  0
 20 21  1  0
 20 22  1  0
 22 23  1  0
 16 24  1  0
 24 25  1  0
 25 26  1  0
 26 27  1  0
 26 28  2  0
 28 29  1  0
 29 30  2  0
 13  7  4  0
 30 16  1  0
 23 17  1  0
 30 25  1  0
  1 31  1  0
  1 32  1  0
  1 33  1  0
  4 34  1  0
  5 35  1  1
  6 36  1  0
  6 37  1  0
  8 38  1  0
  9 39  1  0
 11 40  1  0
 12 41  1  0
 13 42  1  0
 18 43  1  0
 18 44  1  0
 19 45  1  0
 19 46  1  0
 20 47  1  0
 21 48  1  0
 22 49  1  0
 22 50  1  0
 23 51  1  0
 23 52  1  0
 24 53  1  0
 24 54  1  0
 25 55  1  0
 28 56  1  0
 29 57  1  0
M  CHG  1  16   1
M  END
