LIG
     RDKit          3D

 48 50  0  0  0  0  0  0  0  0999 V2000
    5.3930    0.6630   21.8670 C   0  0  0  0  0  0  0  0  0  0  0  0
    5.8360    0.5550   20.4100 C   0  0  0  0  0  0  0  0  0  0  0  0
    5.0650    1.0940   19.3800 C   0  0  0  0  0  0  0  0  0  0  0  0
    5.5190    0.9700   18.0740 C   0  0  0  0  0  0  0  0  0  0  0  0
    6.6520    0.3680   17.7870 N   0  0  0  0  0  0  0  0  0  0  0  0
    7.4050   -0.1450   18.7400 C   0  0  0  0  0  0  0  0  0  0  0  0
    7.0320   -0.0760   20.0760 C   0  0  0  0  0  0  0  0  0  0  0  0
    7.8860   -0.6570   21.1000 N   0  0  0  0  0  0  0  0  0  0  0  0
    9.1310   -0.0090   21.4750 C   0  0  0  0  0  0  0  0  0  0  0  0
    9.4550    1.0030   20.9560 O   0  0  0  0  0  0  0  0  0  0  0  0
   10.5520   -0.8835   23.1060 C   0  0  0  0  0  0  0  0  0  0  0  0
    9.6990   -1.5000   24.2460 C   0  0  0  0  0  0  0  0  0  0  0  0
    9.5440   -2.6880   24.5510 N   0  0  0  0  0  0  0  0  0  0  0  0
    8.3310   -2.8350   25.3360 C   0  0  0  0  0  0  0  0  0  0  0  0
    8.0790   -4.2690   25.8080 C   0  0  0  0  0  0  0  0  0  0  0  0
    9.1820   -4.8160   26.5550 C   0  0  0  0  0  0  0  0  0  0  0  0
    9.3040   -4.2150   27.8200 O   0  0  0  0  0  0  0  0  0  0  0  0
   10.4200   -4.6660   25.8330 C   0  0  0  0  0  0  0  0  0  0  0  0
   10.6550   -3.2590   25.2740 C   0  0  0  0  0  0  0  0  0  0  0  0
   11.9800   -0.0310   24.1900 C   0  0  0  0  0  0  0  0  0  0  0  0
   13.1900    0.0200   23.4210 C   0  0  0  0  0  0  0  0  0  0  0  0
   13.1570   -1.1140   22.2690 S   0  0  0  0  0  0  0  0  0  0  0  0
   11.7160   -1.7870   22.5590 C   0  0  0  0  0  0  0  0  0  0  0  0
    6.1603    1.1760   22.4487 H   0  0  0  0  0  0  0  0  0  0  0  0
    4.4488    1.2064   21.9262 H   0  0  0  0  0  0  0  0  0  0  0  0
    5.2412   -0.3243   22.3062 H   0  0  0  0  0  0  0  0  0  0  0  0
    4.1285    1.6027   19.5689 H   0  0  0  0  0  0  0  0  0  0  0  0
    4.9515    1.3667   17.2467 H   0  0  0  0  0  0  0  0  0  0  0  0
    8.3074   -0.6095   18.4036 H   0  0  0  0  0  0  0  0  0  0  0  0
    7.6288   -1.4633   21.5181 H   0  0  0  0  0  0  0  0  0  0  0  0
   10.0657   -0.8510   25.1723 H   0  0  0  0  0  0  0  0  0  0  0  0
    8.6573   -0.9211   24.1766 H   0  0  0  0  0  0  0  0  0  0  0  0
    8.3388   -2.1982   26.2318 H   0  0  0  0  0  0  0  0  0  0  0  0
    7.4698   -2.5205   24.7363 H   0  0  0  0  0  0  0  0  0  0  0  0
    7.1414   -4.2837   26.4143 H   0  0  0  0  0  0  0  0  0  0  0  0
    7.8185   -4.8977   24.9238 H   0  0  0  0  0  0  0  0  0  0  0  0
    8.9916   -5.9078   26.7563 H   0  0  0  0  0  0  0  0  0  0  0  0
    9.2983   -3.2478   27.6909 H   0  0  0  0  0  0  0  0  0  0  0  0
   11.3121   -4.9374   26.4441 H   0  0  0  0  0  0  0  0  0  0  0  0
   10.4570   -5.3867   24.9847 H   0  0  0  0  0  0  0  0  0  0  0  0
   10.9738   -2.5742   26.1047 H   0  0  0  0  0  0  0  0  0  0  0  0
   11.5649   -3.3237   24.6227 H   0  0  0  0  0  0  0  0  0  0  0  0
   11.9401   -0.6450   25.0684 H   0  0  0  0  0  0  0  0  0  0  0  0
   11.4962    0.9100   24.3904 H   0  0  0  0  0  0  0  0  0  0  0  0
   13.3406    1.0800   23.0053 H   0  0  0  0  0  0  0  0  0  0  0  0
   14.1087   -0.0711   24.1015 H   0  0  0  0  0  0  0  0  0  0  0  0
   11.3043   -2.3067   21.6059 H   0  0  0  0  0  0  0  0  0  0  0  0
   11.7643   -2.7235   23.2543 H   0  0  0  0  0  0  0  0  0  0  0  0
  1  2  1  0
  2  3  4  0
  3  4  4  0
  4  5  4  0
  5  6  4  0
  6  7  4  0
  7  8  1  0
  8  9  1  0
  9 10  2  0
  9 11  1  0
 11 12  1  0
 12 13  1  0
 13 14  1  0
 14 15  1  0
 15 16  1  0
 16 17  1  0
 16 18  1  0
 18 19  1  0
 11 20  1  0
 20 21  1  0
 21 22  1  0
 22 23  1  0
  7  2  4  0
 23 11  1  0
 19 13  1  0
  1 24  1  0
  1 25  1  0
  1 26  1  0
  3 27  1  0
  4 28  1  0
  6 29  1  0
  8 30  1  0
 12 31  1  0
 12 32  1  0
 14 33  1  0
 14 34  1  0
 15 35  1  0
 15 36  1  0
 16 37  1  0
 17 38  1  0
 18 39  1  0
 18 40  1  0
 19 41  1  0
 19 42  1  0
 20 43  1  0
 20 44  1  0
 21 45  1  0
 21 46  1  0
 23 47  1  0
 23 48  1  0
M  END
