LIG
     RDKit          3D

 42 44  0  0  0  0  0  0  0  0999 V2000
   10.1930    3.1570   22.2260 N   0  0  0  0  0  0  0  0  0  0  0  0
    9.4080    1.9150   22.2270 C   0  0  0  0  0  0  0  0  0  0  0  0
    9.0780    1.4060   21.1760 O   0  0  0  0  0  0  0  0  0  0  0  0
    9.0240    1.2620   23.5980 C   0  0  1  0  0  0  0  0  0  0  0  0
    7.6990    1.1640   23.7480 C   0  0  0  0  0  0  0  0  0  0  0  0
    7.3150   -0.3490   23.3420 C   0  0  0  0  0  0  0  0  0  0  0  0
    8.6870   -1.0390   23.0120 C   0  0  0  0  0  0  0  0  0  0  0  0
    9.6520   -0.8985   23.9670 C   0  0  0  0  0  0  0  0  0  0  0  0
   11.0540   -0.7620   23.3800 C   0  0  0  0  0  0  0  0  0  0  0  0
   12.0070    0.2585   23.8290 C   0  0  0  0  0  0  0  0  0  0  0  0
   13.2410    0.1795   23.1350 C   0  0  0  0  0  0  0  0  0  0  0  0
   13.1310   -1.0885   22.0425 S   0  0  0  0  0  0  0  0  0  0  0  0
   11.5660   -1.5835   22.3685 C   0  0  0  0  0  0  0  0  0  0  0  0
    9.5440   -2.6880   24.5510 N   0  0  0  0  0  0  0  0  0  0  0  0
    8.3310   -2.8350   25.3360 C   0  0  0  0  0  0  0  0  0  0  0  0
    8.0790   -4.2690   25.8080 C   0  0  0  0  0  0  0  0  0  0  0  0
    9.1820   -4.8160   26.5550 C   0  0  0  0  0  0  0  0  0  0  0  0
    9.3040   -4.2150   27.8200 O   0  0  0  0  0  0  0  0  0  0  0  0
   10.4200   -4.6660   25.8330 C   0  0  0  0  0  0  0  0  0  0  0  0
   10.6550   -3.2590   25.2740 C   0  0  0  0  0  0  0  0  0  0  0  0
   10.9377    3.2693   21.5923 H   0  0  0  0  0  0  0  0  0  0  0  0
   10.1116    3.6848   23.0610 H   0  0  0  0  0  0  0  0  0  0  0  0
    9.6132    1.7002   24.4059 H   0  0  0  0  0  0  0  0  0  0  0  0
    7.0211    1.8186   23.1397 H   0  0  0  0  0  0  0  0  0  0  0  0
    7.3132    1.2785   24.7924 H   0  0  0  0  0  0  0  0  0  0  0  0
    6.6641   -0.3517   22.4862 H   0  0  0  0  0  0  0  0  0  0  0  0
    6.8315   -0.8211   24.1804 H   0  0  0  0  0  0  0  0  0  0  0  0
    8.9706   -0.6174   21.9686 H   0  0  0  0  0  0  0  0  0  0  0  0
    8.4232   -2.1155   22.6482 H   0  0  0  0  0  0  0  0  0  0  0  0
   11.8253    0.9896   24.5783 H   0  0  0  0  0  0  0  0  0  0  0  0
   14.0903    0.7798   23.2437 H   0  0  0  0  0  0  0  0  0  0  0  0
   11.1210   -2.3794   21.8636 H   0  0  0  0  0  0  0  0  0  0  0  0
    7.4862   -2.5279   24.7078 H   0  0  0  0  0  0  0  0  0  0  0  0
    8.2885   -2.1769   26.2065 H   0  0  0  0  0  0  0  0  0  0  0  0
    7.8208   -4.8829   24.9163 H   0  0  0  0  0  0  0  0  0  0  0  0
    7.1509   -4.2556   26.4211 H   0  0  0  0  0  0  0  0  0  0  0  0
    9.4703   -3.0688   26.3941 H   0  0  0  0  0  0  0  0  0  0  0  0
    8.8957   -4.8024   28.4837 H   0  0  0  0  0  0  0  0  0  0  0  0
   10.5143   -5.3967   24.9848 H   0  0  0  0  0  0  0  0  0  0  0  0
   11.2953   -4.9375   26.4783 H   0  0  0  0  0  0  0  0  0  0  0  0
   10.9732   -2.6113   26.1213 H   0  0  0  0  0  0  0  0  0  0  0  0
   11.5444   -3.3368   24.6125 H   0  0  0  0  0  0  0  0  0  0  0  0
  1  2  1  0
  2  3  2  0
  2  4  1  0
  4  5  1  0
  5  6  1  0
  6  7  1  0
  7  8  1  0
  8  9  1  0
  9 10  4  0
 10 11  4  0
 11 12  4  0
 12 13  4  0
  8 14  1  0
 14 15  1  0
 15 16  1  0
 16 17  1  0
 17 18  1  0
 17 19  1  0
 19 20  1  0
  8  4  1  0
 13  9  4  0
 20 14  1  0
  1 21  1  0
  1 22  1  0
  4 23  1  1
  5 24  1  0
  5 25  1  0
  6 26  1  0
  6 27  1  0
  7 28  1  0
  7 29  1  0
 10 30  1  0
 11 31  1  0
 13 32  1  0
 15 33  1  0
 15 34  1  0
 16 35  1  0
 16 36  1  0
 17 37  1  0
 18 38  1  0
 19 39  1  0
 19 40  1  0
 20 41  1  0
 20 42  1  0
M  END
