LIG
     RDKit          3D

 48 50  0  0  0  0  0  0  0  0999 V2000
    8.9920    6.2370   22.6120 C   0  0  0  0  0  0  0  0  0  0  0  0
   10.2740    5.9430   23.3830 C   0  0  0  0  0  0  0  0  0  0  0  0
   10.3130    6.1380   24.5460 O   0  0  0  0  0  0  0  0  0  0  0  0
   11.4270    5.4110   22.6760 N   0  0  0  0  0  0  0  0  0  0  0  0
   12.6680    5.0840   23.3500 C   0  0  0  0  0  0  0  0  0  0  0  0
   13.0500    3.6550   22.9570 C   0  0  0  0  0  0  0  0  0  0  0  0
   12.0650    2.5700   23.4230 C   0  0  0  0  0  0  0  0  0  0  0  0
   10.9400    2.7480   24.2110 C   0  0  0  0  0  0  0  0  0  0  0  0
   10.3530    1.5710   24.3790 N   0  0  0  0  0  0  0  0  0  0  0  0
   11.5140    0.2825   23.9590 C   0  0  0  0  0  0  0  0  0  0  0  0
   10.9495   -0.9725   23.6380 C   0  0  0  0  0  0  0  0  0  0  0  0
    9.6990   -1.5000   24.2460 C   0  0  0  0  0  0  0  0  0  0  0  0
    9.5440   -2.6880   24.5510 N   0  0  0  0  0  0  0  0  0  0  0  0
    8.3310   -2.8350   25.3360 C   0  0  0  0  0  0  0  0  0  0  0  0
    8.0790   -4.2690   25.8080 C   0  0  0  0  0  0  0  0  0  0  0  0
    9.1820   -4.8160   26.5550 C   0  0  0  0  0  0  0  0  0  0  0  0
    9.3040   -4.2150   27.8200 O   0  0  0  0  0  0  0  0  0  0  0  0
   10.4200   -4.6660   25.8330 C   0  0  0  0  0  0  0  0  0  0  0  0
   10.6550   -3.2590   25.2740 C   0  0  0  0  0  0  0  0  0  0  0  0
   11.7120   -1.6840   22.7140 C   0  0  0  0  0  0  0  0  0  0  0  0
   12.9835   -1.0510   22.2570 C   0  0  0  0  0  0  0  0  0  0  0  0
   13.6800   -1.7440   21.5180 F   0  0  0  0  0  0  0  0  0  0  0  0
   13.1100    0.2020   22.8945 C   0  0  0  0  0  0  0  0  0  0  0  0
   12.1310    1.1860   23.1210 C   0  0  0  0  0  0  0  0  0  0  0  0
    9.2551    6.5118   21.5902 H   0  0  0  0  0  0  0  0  0  0  0  0
    8.8799    5.5639   21.7619 H   0  0  0  0  0  0  0  0  0  0  0  0
    8.3720    5.3407   22.6125 H   0  0  0  0  0  0  0  0  0  0  0  0
   11.2135    4.9225   21.8161 H   0  0  0  0  0  0  0  0  0  0  0  0
   13.4386    5.7653   23.0361 H   0  0  0  0  0  0  0  0  0  0  0  0
   12.4994    5.1715   24.4085 H   0  0  0  0  0  0  0  0  0  0  0  0
   13.1470    3.5846   21.8639 H   0  0  0  0  0  0  0  0  0  0  0  0
   14.0386    3.4119   23.3710 H   0  0  0  0  0  0  0  0  0  0  0  0
   10.5306    3.6598   24.6441 H   0  0  0  0  0  0  0  0  0  0  0  0
    9.5104    1.2249   24.6523 H   0  0  0  0  0  0  0  0  0  0  0  0
    9.4959   -0.7980   25.1445 H   0  0  0  0  0  0  0  0  0  0  0  0
    8.8499   -1.0876   23.5675 H   0  0  0  0  0  0  0  0  0  0  0  0
    8.4240   -2.1928   26.2221 H   0  0  0  0  0  0  0  0  0  0  0  0
    7.4429   -2.4640   24.8103 H   0  0  0  0  0  0  0  0  0  0  0  0
    7.1260   -4.2754   26.3849 H   0  0  0  0  0  0  0  0  0  0  0  0
    7.8646   -4.8796   24.9009 H   0  0  0  0  0  0  0  0  0  0  0  0
    8.9853   -5.8971   26.7529 H   0  0  0  0  0  0  0  0  0  0  0  0
   10.2127   -3.8695   27.9061 H   0  0  0  0  0  0  0  0  0  0  0  0
   11.3141   -4.9481   26.4533 H   0  0  0  0  0  0  0  0  0  0  0  0
   10.4808   -5.3940   24.9814 H   0  0  0  0  0  0  0  0  0  0  0  0
   10.9264   -2.5884   26.1235 H   0  0  0  0  0  0  0  0  0  0  0  0
   11.5777   -3.3041   24.6461 H   0  0  0  0  0  0  0  0  0  0  0  0
   11.4730   -2.6141   22.3120 H   0  0  0  0  0  0  0  0  0  0  0  0
   14.1782    0.4305   23.2730 H   0  0  0  0  0  0  0  0  0  0  0  0
  1  2  1  0
  2  3  2  0
  2  4  1  0
  4  5  1  0
  5  6  1  0
  6  7  1  0
  7  8  4  0
  8  9  4  0
  9 10  4  0
 10 11  4  0
 11 12  1  0
 12 13  1  0
 13 14  1  0
 14 15  1  0
 15 16  1  0
 16 17  1  0
 16 18  1  0
 18 19  1  0
 11 20  4  0
 20 21  4  0
 21 22  1  0
 21 23  4  0
 23 24  4  0
 24  7  4  0
 24 10  4  0
 19 13  1  0
  1 25  1  0
  1 26  1  0
  1 27  1  0
  4 28  1  0
  5 29  1  0
  5 30  1  0
  6 31  1  0
  6 32  1  0
  8 33  1  0
  9 34  1  0
 12 35  1  0
 12 36  1  0
 14 37  1  0
 14 38  1  0
 15 39  1  0
 15 40  1  0
 16 41  1  0
 17 42  1  0
 18 43  1  0
 18 44  1  0
 19 45  1  0
 19 46  1  0
 20 47  1  0
 23 48  1  0
M  END
