
     RDKit          3D

 52 55  0  0  0  0  0  0  0  0999 V2000
   10.8290    6.0050   22.6620 N   0  0  0  0  0  0  0  0  0  0  0  0
    9.8820    4.8590   23.5020 S   0  0  1  0  0  0  0  0  0  0  0  0
    9.6860    5.3700   24.8400 O   0  0  0  0  0  0  0  0  0  0  0  0
    8.7600    4.5690   22.6560 O   0  0  0  0  0  0  0  0  0  0  0  0
   10.9940    3.4510   23.5800 C   0  0  2  0  0  0  0  0  0  0  0  0
   12.0580    3.3900   22.5470 C   0  0  0  0  0  0  0  0  0  0  0  0
   12.8030    2.2460   22.7870 C   0  0  0  0  0  0  0  0  0  0  0  0
   12.1880    0.8930   22.6750 C   0  0  1  0  0  0  0  0  0  0  0  0
   13.1440   -0.2210   22.5970 C   0  0  0  0  0  0  0  0  0  0  0  0
   12.8490   -1.4200   23.1440 C   0  0  2  0  0  0  0  0  0  0  0  0
   11.7990   -1.9610   22.4990 C   0  0  0  0  0  0  0  0  0  0  0  0
   11.6400   -1.5340   23.9340 C   0  0  2  0  0  0  0  0  0  0  0  0
   10.7910   -0.4740   24.1900 N   0  0  0  0  0  0  0  0  0  0  0  0
    9.4940   -0.5170   24.7770 C   0  0  0  0  0  0  0  0  0  0  0  0
    8.8520   -1.7060   24.5030 N   0  0  0  0  0  0  0  0  0  0  0  0
    9.3900   -2.9410   23.8740 C   0  0  0  0  0  0  0  0  0  0  0  0
    8.5250   -4.0080   23.8850 C   0  0  0  0  0  0  0  0  0  0  0  0
    7.2700   -3.7510   24.4550 C   0  0  1  0  0  0  0  0  0  0  0  0
    7.3320   -3.3110   25.6000 O   0  0  0  0  0  0  0  0  0  0  0  0
    6.7690   -2.6590   23.9010 C   0  0  0  0  0  0  0  0  0  0  0  0
    7.4100   -1.5010   24.3020 C   0  0  0  0  0  0  0  0  0  0  0  0
   11.3720    0.8690   23.9450 C   0  0  2  0  0  0  0  0  0  0  0  0
   10.3500    2.0460   23.8510 C   0  0  0  0  0  0  0  0  0  0  0  0
   11.8170    5.8600   22.8800 H   0  0  0  0  0  0  0  0  0  0  0  0
   10.6160    5.9050   21.6560 H   0  0  0  0  0  0  0  0  0  0  0  0
   11.5300    3.6850   24.4470 H   0  0  0  0  0  0  0  0  0  0  0  0
   12.7060    4.2660   22.6610 H   0  0  0  0  0  0  0  0  0  0  0  0
   11.6150    3.4030   21.5530 H   0  0  0  0  0  0  0  0  0  0  0  0
   12.9620    2.2850   23.8120 H   0  0  0  0  0  0  0  0  0  0  0  0
   13.8260    2.3020   22.4530 H   0  0  0  0  0  0  0  0  0  0  0  0
   11.4190    0.8020   21.9380 H   0  0  0  0  0  0  0  0  0  0  0  0
   14.0380    0.1310   23.0850 H   0  0  0  0  0  0  0  0  0  0  0  0
   13.4560   -0.3910   21.5620 H   0  0  0  0  0  0  0  0  0  0  0  0
   13.6900   -2.1180   23.2150 H   0  0  0  0  0  0  0  0  0  0  0  0
   11.2600   -1.2770   21.8420 H   0  0  0  0  0  0  0  0  0  0  0  0
   11.6490   -3.0350   22.3980 H   0  0  0  0  0  0  0  0  0  0  0  0
   11.5610   -2.3100   24.7060 H   0  0  0  0  0  0  0  0  0  0  0  0
    8.8880    0.3200   24.4420 H   0  0  0  0  0  0  0  0  0  0  0  0
    9.5900   -0.4030   25.8640 H   0  0  0  0  0  0  0  0  0  0  0  0
   10.2820   -3.2300   24.4350 H   0  0  0  0  0  0  0  0  0  0  0  0
    9.7770   -2.6490   22.9040 H   0  0  0  0  0  0  0  0  0  0  0  0
    8.3460   -4.2900   22.8400 H   0  0  0  0  0  0  0  0  0  0  0  0
    8.9840   -4.8900   24.3010 H   0  0  0  0  0  0  0  0  0  0  0  0
    6.6290   -4.6190   24.5360 H   0  0  0  0  0  0  0  0  0  0  0  0
    6.4850   -3.5010   26.0390 H   0  0  0  0  0  0  0  0  0  0  0  0
    6.8160   -2.7520   22.8050 H   0  0  0  0  0  0  0  0  0  0  0  0
    5.7010   -2.5870   24.1370 H   0  0  0  0  0  0  0  0  0  0  0  0
    7.2520   -0.7440   23.5230 H   0  0  0  0  0  0  0  0  0  0  0  0
    6.9440   -1.1210   25.2200 H   0  0  0  0  0  0  0  0  0  0  0  0
   12.1120    1.0670   24.7020 H   0  0  0  0  0  0  0  0  0  0  0  0
    9.6220    1.8020   23.0650 H   0  0  0  0  0  0  0  0  0  0  0  0
    9.7650    2.1180   24.7750 H   0  0  0  0  0  0  0  0  0  0  0  0
  2  1  1  6
  2  3  2  0
  2  4  2  0
  2  5  1  0
  5  6  1  0
  6  7  1  0
  7  8  1  0
  8  9  1  0
  9 10  1  0
 10 11  1  0
 10 12  1  0
 11 12  1  0
 12 13  1  0
 13 14  1  0
 14 15  1  0
 15 16  1  0
 16 17  1  0
 17 18  1  0
 18 19  1  0
 18 20  1  0
 15 21  1  0
 20 21  1  0
  8 22  1  0
 13 22  1  0
  5 23  1  0
 22 23  1  0
  1 24  1  0
  1 25  1  0
  5 26  1  1
  6 27  1  0
  6 28  1  0
  7 29  1  0
  7 30  1  0
  8 31  1  6
  9 32  1  0
  9 33  1  0
 10 34  1  1
 11 35  1  0
 11 36  1  0
 12 37  1  1
 14 38  1  0
 14 39  1  0
 16 40  1  0
 16 41  1  0
 17 42  1  0
 17 43  1  0
 18 44  1  1
 19 45  1  0
 20 46  1  0
 20 47  1  0
 21 48  1  0
 21 49  1  0
 22 50  1  1
 23 51  1  0
 23 52  1  0
M  END
