LIG
     RDKit          3D

 50 52  0  0  0  0  0  0  0  0999 V2000
    9.4190    1.1020   21.0000 O   0  0  0  0  0  0  0  0  0  0  0  0
    8.8650    0.3120   21.6960 C   0  0  0  0  0  0  0  0  0  0  0  0
    7.6120   -0.2560   21.3260 N   0  0  0  0  0  0  0  0  0  0  0  0
    7.0000    0.1710   20.1090 C   0  0  0  0  0  0  0  0  0  0  0  0
    5.7560    0.7730   20.2490 C   0  0  0  0  0  0  0  0  0  0  0  0
    5.1420    1.2080   19.0830 C   0  0  0  0  0  0  0  0  0  0  0  0
    5.8050    1.0240   17.8770 C   0  0  0  0  0  0  0  0  0  0  0  0
    7.0000    0.4540   17.8140 N   0  0  0  0  0  0  0  0  0  0  0  0
    7.6260    0.0260   18.8870 C   0  0  0  0  0  0  0  0  0  0  0  0
    9.5540   -0.8275   23.6395 C   0  0  0  0  0  0  0  0  0  0  0  0
   10.9990   -0.6115   23.3780 C   0  0  0  0  0  0  0  0  0  0  0  0
   11.6305   -0.2165   24.3585 C   0  0  0  0  0  0  0  0  0  0  0  0
   12.7710   -0.1530   24.6900 C   0  0  0  0  0  0  0  0  0  0  0  0
   13.4000   -0.4195   23.5250 C   0  0  0  0  0  0  0  0  0  0  0  0
   12.9875   -1.4135   22.4580 C   0  0  0  0  0  0  0  0  0  0  0  0
   11.6390   -1.4170   22.3275 C   0  0  0  0  0  0  0  0  0  0  0  0
    9.5440   -2.6880   24.5510 N   0  0  0  0  0  0  0  0  0  0  0  0
    8.3310   -2.8350   25.3360 C   0  0  0  0  0  0  0  0  0  0  0  0
    8.0790   -4.2690   25.8080 C   0  0  0  0  0  0  0  0  0  0  0  0
    9.1820   -4.8160   26.5550 C   0  0  0  0  0  0  0  0  0  0  0  0
    9.3040   -4.2150   27.8200 O   0  0  0  0  0  0  0  0  0  0  0  0
   10.4200   -4.6660   25.8330 C   0  0  0  0  0  0  0  0  0  0  0  0
   10.6550   -3.2590   25.2740 C   0  0  0  0  0  0  0  0  0  0  0  0
    7.2792   -0.9682   21.8455 H   0  0  0  0  0  0  0  0  0  0  0  0
    5.2655    0.8971   21.1830 H   0  0  0  0  0  0  0  0  0  0  0  0
    4.1630    1.6703   19.1044 H   0  0  0  0  0  0  0  0  0  0  0  0
    5.3663    1.3389   16.9448 H   0  0  0  0  0  0  0  0  0  0  0  0
    8.5748   -0.4104   18.7597 H   0  0  0  0  0  0  0  0  0  0  0  0
   10.1737   -1.9189   22.3034 H   0  0  0  0  0  0  0  0  0  0  0  0
   10.8447    0.4931   22.7088 H   0  0  0  0  0  0  0  0  0  0  0  0
   10.9936   -0.6873   25.3652 H   0  0  0  0  0  0  0  0  0  0  0  0
   11.1720    0.9189   24.7071 H   0  0  0  0  0  0  0  0  0  0  0  0
   13.1352    0.8263   25.0744 H   0  0  0  0  0  0  0  0  0  0  0  0
   13.0937   -0.8827   25.4652 H   0  0  0  0  0  0  0  0  0  0  0  0
   13.5961    0.5892   22.9146 H   0  0  0  0  0  0  0  0  0  0  0  0
   14.5610   -0.6418   23.7191 H   0  0  0  0  0  0  0  0  0  0  0  0
   13.5307   -1.1512   21.5234 H   0  0  0  0  0  0  0  0  0  0  0  0
   13.4118   -2.3980   22.7593 H   0  0  0  0  0  0  0  0  0  0  0  0
   11.2434   -2.4524   22.3466 H   0  0  0  0  0  0  0  0  0  0  0  0
   11.3339   -1.0107   21.3383 H   0  0  0  0  0  0  0  0  0  0  0  0
    7.4664   -2.5243   24.7360 H   0  0  0  0  0  0  0  0  0  0  0  0
    8.3701   -2.2124   26.2409 H   0  0  0  0  0  0  0  0  0  0  0  0
    7.1390   -4.2772   26.4155 H   0  0  0  0  0  0  0  0  0  0  0  0
    7.8017   -4.8927   24.9225 H   0  0  0  0  0  0  0  0  0  0  0  0
    9.5049   -3.0783   26.3981 H   0  0  0  0  0  0  0  0  0  0  0  0
   10.2151   -3.8762   27.9276 H   0  0  0  0  0  0  0  0  0  0  0  0
   11.2962   -4.9009   26.4887 H   0  0  0  0  0  0  0  0  0  0  0  0
   10.5120   -5.3906   24.9826 H   0  0  0  0  0  0  0  0  0  0  0  0
   11.0166   -2.6271   26.1042 H   0  0  0  0  0  0  0  0  0  0  0  0
   11.5186   -3.3107   24.5849 H   0  0  0  0  0  0  0  0  0  0  0  0
  1  2  2  0
  2  3  1  0
  3  4  1  0
  4  5  4  0
  5  6  4  0
  6  7  4  0
  7  8  4  0
  8  9  4  0
  2 10  1  0
 10 11  1  0
 11 12  1  0
 12 13  1  0
 13 14  1  0
 14 15  1  0
 15 16  1  0
 10 17  1  0
 17 18  1  0
 18 19  1  0
 19 20  1  0
 20 21  1  0
 20 22  1  0
 22 23  1  0
  9  4  4  0
 16 11  1  0
 23 17  1  0
  3 24  1  0
  5 25  1  0
  6 26  1  0
  7 27  1  0
  9 28  1  0
 10 29  1  0
 11 30  1  0
 12 31  1  0
 12 32  1  0
 13 33  1  0
 13 34  1  0
 14 35  1  0
 14 36  1  0
 15 37  1  0
 15 38  1  0
 16 39  1  0
 16 40  1  0
 18 41  1  0
 18 42  1  0
 19 43  1  0
 19 44  1  0
 20 45  1  0
 21 46  1  0
 22 47  1  0
 22 48  1  0
 23 49  1  0
 23 50  1  0
M  END
