LIG
     RDKit          3D

 43 44  0  0  0  0  0  0  0  0999 V2000
    8.4100    0.0120   27.4140 C   0  0  0  0  0  0  0  0  0  0  0  0
    8.9670   -0.5390   26.1210 C   0  0  0  0  0  0  0  0  0  0  0  0
   10.1000    0.2670   25.7050 N   0  0  0  0  0  0  0  0  0  0  0  0
   10.3130   -0.8380   24.4275 C   0  0  0  0  0  0  0  0  0  0  0  0
   10.8255   -1.2270   23.7780 C   0  0  0  0  0  0  0  0  0  0  0  0
   11.9935    0.2425   24.2445 C   0  0  0  0  0  0  0  0  0  0  0  0
   12.9890    0.0785   23.3550 C   0  0  0  0  0  0  0  0  0  0  0  0
   12.8255   -1.0525   22.3965 S   0  0  0  0  0  4  0  0  0  0  0  0
   13.3880   -1.4320   21.3740 C   0  0  0  0  0  0  0  0  0  0  0  0
   14.0700   -1.7370   20.5180 N   0  0  0  0  0  0  0  0  0  0  0  0
   11.5405   -1.7565   22.6975 C   0  0  0  0  0  0  0  0  0  0  0  0
    9.5440   -2.6880   24.5510 N   0  0  0  0  0  0  0  0  0  0  0  0
    8.3310   -2.8350   25.3360 C   0  0  0  0  0  0  0  0  0  0  0  0
    8.0790   -4.2690   25.8080 C   0  0  0  0  0  0  0  0  0  0  0  0
    9.1820   -4.8160   26.5550 C   0  0  0  0  0  0  0  0  0  0  0  0
    9.3040   -4.2150   27.8200 O   0  0  0  0  0  0  0  0  0  0  0  0
   10.4200   -4.6660   25.8330 C   0  0  0  0  0  0  0  0  0  0  0  0
   10.6550   -3.2590   25.2740 C   0  0  0  0  0  0  0  0  0  0  0  0
    7.8928    0.9667   27.2552 H   0  0  0  0  0  0  0  0  0  0  0  0
    9.2022    0.1744   28.1555 H   0  0  0  0  0  0  0  0  0  0  0  0
    7.6865   -0.6887   27.8480 H   0  0  0  0  0  0  0  0  0  0  0  0
    8.1702   -0.5330   25.3670 H   0  0  0  0  0  0  0  0  0  0  0  0
    9.2598   -1.5836   26.2882 H   0  0  0  0  0  0  0  0  0  0  0  0
    9.8920    1.0306   25.2944 H   0  0  0  0  0  0  0  0  0  0  0  0
   11.3126   -1.5817   25.3394 H   0  0  0  0  0  0  0  0  0  0  0  0
   10.3820   -0.0758   22.8439 H   0  0  0  0  0  0  0  0  0  0  0  0
   11.3222    1.0663   24.1547 H   0  0  0  0  0  0  0  0  0  0  0  0
   12.1593   -0.0173   25.2774 H   0  0  0  0  0  0  0  0  0  0  0  0
   13.1702    1.0878   22.7517 H   0  0  0  0  0  0  0  0  0  0  0  0
   14.0475    0.0515   23.9132 H   0  0  0  0  0  0  0  0  0  0  0  0
   11.7547    0.1458   21.3052 H   0  0  0  0  0  0  0  0  0  0  0  0
   11.7092   -2.9140   22.8506 H   0  0  0  0  0  0  0  0  0  0  0  0
   10.8783   -1.8028   21.7289 H   0  0  0  0  0  0  0  0  0  0  0  0
    7.4574   -2.4715   24.7598 H   0  0  0  0  0  0  0  0  0  0  0  0
    8.3717   -2.2239   26.2547 H   0  0  0  0  0  0  0  0  0  0  0  0
    7.8160   -4.8751   24.9192 H   0  0  0  0  0  0  0  0  0  0  0  0
    7.1613   -4.2747   26.4268 H   0  0  0  0  0  0  0  0  0  0  0  0
    9.5000   -3.0579   26.3941 H   0  0  0  0  0  0  0  0  0  0  0  0
    8.8061   -3.3763   27.7989 H   0  0  0  0  0  0  0  0  0  0  0  0
   11.3064   -4.9533   26.4599 H   0  0  0  0  0  0  0  0  0  0  0  0
   10.4801   -5.4016   24.9852 H   0  0  0  0  0  0  0  0  0  0  0  0
   11.5666   -3.3200   24.6492 H   0  0  0  0  0  0  0  0  0  0  0  0
   10.9149   -2.6003   26.1231 H   0  0  0  0  0  0  0  0  0  0  0  0
  1  2  1  0
  2  3  1  0
  3  4  1  0
  4  5  1  0
  5  6  1  0
  6  7  1  0
  7  8  1  0
  8  9  1  0
  9 10  3  0
  8 11  1  0
  4 12  1  0
 12 13  1  0
 13 14  1  0
 14 15  1  0
 15 16  1  0
 15 17  1  0
 17 18  1  0
 11  5  1  0
 18 12  1  0
  1 19  1  0
  1 20  1  0
  1 21  1  0
  2 22  1  0
  2 23  1  0
  3 24  1  0
  4 25  1  0
  5 26  1  0
  6 27  1  0
  6 28  1  0
  7 29  1  0
  7 30  1  0
  8 31  1  0
 11 32  1  0
 11 33  1  0
 13 34  1  0
 13 35  1  0
 14 36  1  0
 14 37  1  0
 15 38  1  0
 16 39  1  0
 17 40  1  0
 17 41  1  0
 18 42  1  0
 18 43  1  0
M  END
