
     RDKit          3D

 50 52  0  0  0  0  0  0  0  0999 V2000
    9.0250    0.7160   21.8370 O   0  0  0  0  0  0  0  0  0  0  0  0
    8.5860   -0.6140   22.1310 C   0  0  0  0  0  0  0  0  0  0  0  0
    7.1970   -0.8740   21.7240 N   0  0  0  0  0  0  0  0  0  0  0  0
    6.7070   -0.2270   20.4660 C   0  0  0  0  0  0  0  0  0  0  0  0
    5.6350    0.6540   20.6260 C   0  0  0  0  0  0  0  0  0  0  0  0
    4.9550    1.4300   19.4960 C   0  0  0  0  0  0  0  0  0  0  0  0
    5.5120    1.2010   18.1240 C   0  0  0  0  0  0  0  0  0  0  0  0
    6.6540    0.2530   18.0220 N   0  0  0  0  0  0  0  0  0  0  0  0
    7.2240   -0.4410   19.1820 C   0  0  0  0  0  0  0  0  0  0  0  0
    9.5750   -1.6910   22.8040 C   0  0  1  0  0  0  0  0  0  0  0  0
   10.7320   -0.9010   22.8320 C   0  0  1  0  0  0  0  0  0  0  0  0
   11.0490   -0.3480   24.2040 C   0  0  0  0  0  0  0  0  0  0  0  0
   12.5240   -0.3590   24.5410 C   0  0  0  0  0  0  0  0  0  0  0  0
   13.2960   -1.3350   23.9690 C   0  0  0  0  0  0  0  0  0  0  0  0
   12.6540   -2.1980   23.1260 C   0  0  0  0  0  0  0  0  0  0  0  0
   11.8460   -1.5450   22.2380 C   0  0  0  0  0  0  0  0  0  0  0  0
    9.2390   -2.3550   24.1860 N   0  0  0  0  0  0  0  0  0  0  0  0
    7.9480   -3.0780   24.3170 C   0  0  0  0  0  0  0  0  0  0  0  0
    7.8600   -4.1610   25.2460 C   0  0  0  0  0  0  0  0  0  0  0  0
    9.0150   -4.0500   26.2060 C   0  0  1  0  0  0  0  0  0  0  0  0
    8.9300   -4.9540   27.2950 O   0  0  0  0  0  0  0  0  0  0  0  0
   10.2560   -4.0840   25.6440 C   0  0  0  0  0  0  0  0  0  0  0  0
   10.4690   -3.0420   24.7330 C   0  0  0  0  0  0  0  0  0  0  0  0
    6.9460   -1.8560   21.8620 H   0  0  0  0  0  0  0  0  0  0  0  0
    5.2420    0.8050   21.6440 H   0  0  0  0  0  0  0  0  0  0  0  0
    4.1220    2.1040   19.6700 H   0  0  0  0  0  0  0  0  0  0  0  0
    5.1370    1.6800   17.2190 H   0  0  0  0  0  0  0  0  0  0  0  0
    8.0500   -1.1130   18.9780 H   0  0  0  0  0  0  0  0  0  0  0  0
    9.5580   -2.5500   22.1380 H   0  0  0  0  0  0  0  0  0  0  0  0
   10.6590   -0.1110   22.0960 H   0  0  0  0  0  0  0  0  0  0  0  0
   10.5120   -0.8890   24.9900 H   0  0  0  0  0  0  0  0  0  0  0  0
   10.6780    0.6850   24.2640 H   0  0  0  0  0  0  0  0  0  0  0  0
   12.9090    0.6200   24.2600 H   0  0  0  0  0  0  0  0  0  0  0  0
   12.6450   -0.4570   25.6200 H   0  0  0  0  0  0  0  0  0  0  0  0
   13.9850   -0.7830   23.3400 H   0  0  0  0  0  0  0  0  0  0  0  0
   13.9380   -1.7910   24.7240 H   0  0  0  0  0  0  0  0  0  0  0  0
   13.3050   -2.9440   22.6800 H   0  0  0  0  0  0  0  0  0  0  0  0
   11.9790   -2.7880   23.7370 H   0  0  0  0  0  0  0  0  0  0  0  0
   11.5870   -2.1580   21.3720 H   0  0  0  0  0  0  0  0  0  0  0  0
   12.3800   -0.7320   21.7730 H   0  0  0  0  0  0  0  0  0  0  0  0
    7.5720   -3.2670   23.3050 H   0  0  0  0  0  0  0  0  0  0  0  0
    7.2430   -2.3190   24.6880 H   0  0  0  0  0  0  0  0  0  0  0  0
    6.9300   -4.0790   25.8160 H   0  0  0  0  0  0  0  0  0  0  0  0
    7.8630   -5.1850   24.8570 H   0  0  0  0  0  0  0  0  0  0  0  0
    8.9060   -3.0810   26.6530 H   0  0  0  0  0  0  0  0  0  0  0  0
    8.3670   -4.5400   27.9720 H   0  0  0  0  0  0  0  0  0  0  0  0
   11.0510   -4.2400   26.3650 H   0  0  0  0  0  0  0  0  0  0  0  0
   10.2910   -5.0060   25.0580 H   0  0  0  0  0  0  0  0  0  0  0  0
   11.1480   -2.3180   25.1830 H   0  0  0  0  0  0  0  0  0  0  0  0
   10.9980   -3.4790   23.8820 H   0  0  0  0  0  0  0  0  0  0  0  0
  1  2  2  0
  2  3  1  0
  3  4  1  0
  4  5  2  0
  5  6  1  0
  6  7  2  0
  7  8  1  0
  4  9  1  0
  8  9  2  0
  2 10  1  0
 10 11  1  0
 11 12  1  0
 12 13  1  0
 13 14  1  0
 14 15  1  0
 11 16  1  0
 15 16  1  0
 10 17  1  0
 17 18  1  0
 18 19  1  0
 19 20  1  0
 20 21  1  0
 20 22  1  0
 17 23  1  0
 22 23  1  0
  3 24  1  0
  5 25  1  0
  6 26  1  0
  7 27  1  0
  9 28  1  0
 10 29  1  6
 11 30  1  6
 12 31  1  0
 12 32  1  0
 13 33  1  0
 13 34  1  0
 14 35  1  0
 14 36  1  0
 15 37  1  0
 15 38  1  0
 16 39  1  0
 16 40  1  0
 18 41  1  0
 18 42  1  0
 19 43  1  0
 19 44  1  0
 20 45  1  1
 21 46  1  0
 22 47  1  0
 22 48  1  0
 23 49  1  0
 23 50  1  0
M  END
