
     RDKit          3D

 48 50  0  0  0  0  0  0  0  0999 V2000
    5.8000    0.8090   22.3320 C   0  0  0  0  0  0  0  0  0  0  0  0
    6.0790    0.5500   20.8820 C   0  0  0  0  0  0  0  0  0  0  0  0
    5.2320    1.1560   19.9260 C   0  0  0  0  0  0  0  0  0  0  0  0
    5.5100    0.8900   18.4560 C   0  0  0  0  0  0  0  0  0  0  0  0
    6.5200    0.1050   18.0760 N   0  0  0  0  0  0  0  0  0  0  0  0
    7.3000   -0.4530   19.0580 C   0  0  0  0  0  0  0  0  0  0  0  0
    7.1440   -0.2730   20.4270 C   0  0  0  0  0  0  0  0  0  0  0  0
    8.0840   -0.9620   21.2410 N   0  0  0  0  0  0  0  0  0  0  0  0
    9.1540   -0.2420   21.8480 C   0  0  0  0  0  0  0  0  0  0  0  0
    9.3060    0.9270   21.4980 O   0  0  0  0  0  0  0  0  0  0  0  0
   10.1010   -0.7250   22.8860 C   0  0  2  0  0  0  0  0  0  0  0  0
    9.5310   -1.2740   24.2010 C   0  0  0  0  0  0  0  0  0  0  0  0
    9.3310   -2.6470   24.4290 N   0  0  0  0  0  0  0  0  0  0  0  0
    8.0730   -3.1610   25.0130 C   0  0  0  0  0  0  0  0  0  0  0  0
    7.9780   -4.4210   25.5870 C   0  0  0  0  0  0  0  0  0  0  0  0
    9.1130   -4.8530   26.2550 C   0  0  2  0  0  0  0  0  0  0  0  0
    9.0840   -4.2180   27.5260 O   0  0  0  0  0  0  0  0  0  0  0  0
   10.3310   -4.5030   25.6860 C   0  0  0  0  0  0  0  0  0  0  0  0
   10.4850   -3.1980   25.1670 C   0  0  0  0  0  0  0  0  0  0  0  0
   11.1100    0.2590   23.1760 C   0  0  0  0  0  0  0  0  0  0  0  0
   12.5930   -0.1010   23.2830 C   0  0  0  0  0  0  0  0  0  0  0  0
   12.7200   -1.5140   22.1930 S   0  0  0  0  0  0  0  0  0  0  0  0
   10.9360   -1.9000   22.2770 C   0  0  0  0  0  0  0  0  0  0  0  0
    6.6200    1.3480   22.8130 H   0  0  0  0  0  0  0  0  0  0  0  0
    4.8950    1.4170   22.4190 H   0  0  0  0  0  0  0  0  0  0  0  0
    5.6530   -0.1450   22.8440 H   0  0  0  0  0  0  0  0  0  0  0  0
    4.4030    1.7950   20.2130 H   0  0  0  0  0  0  0  0  0  0  0  0
    4.9020    1.3240   17.6610 H   0  0  0  0  0  0  0  0  0  0  0  0
    8.0840   -1.0740   18.6420 H   0  0  0  0  0  0  0  0  0  0  0  0
    7.7630   -1.8050   21.6940 H   0  0  0  0  0  0  0  0  0  0  0  0
   10.1210   -0.8690   25.0350 H   0  0  0  0  0  0  0  0  0  0  0  0
    8.5400   -0.8180   24.3440 H   0  0  0  0  0  0  0  0  0  0  0  0
    7.7650   -2.4070   25.7420 H   0  0  0  0  0  0  0  0  0  0  0  0
    7.3200   -3.1500   24.2210 H   0  0  0  0  0  0  0  0  0  0  0  0
    7.1710   -4.3540   26.3260 H   0  0  0  0  0  0  0  0  0  0  0  0
    7.5640   -5.1140   24.8550 H   0  0  0  0  0  0  0  0  0  0  0  0
    9.0650   -5.9040   26.5420 H   0  0  0  0  0  0  0  0  0  0  0  0
    8.8210   -3.2940   27.3810 H   0  0  0  0  0  0  0  0  0  0  0  0
   11.1490   -4.5650   26.4040 H   0  0  0  0  0  0  0  0  0  0  0  0
   10.6450   -5.2480   24.9660 H   0  0  0  0  0  0  0  0  0  0  0  0
   10.7790   -2.5070   25.9470 H   0  0  0  0  0  0  0  0  0  0  0  0
   11.3380   -3.2110   24.4760 H   0  0  0  0  0  0  0  0  0  0  0  0
   10.8410    0.7110   24.1310 H   0  0  0  0  0  0  0  0  0  0  0  0
   11.0430    1.0830   22.4610 H   0  0  0  0  0  0  0  0  0  0  0  0
   13.1910    0.7280   22.8840 H   0  0  0  0  0  0  0  0  0  0  0  0
   13.0350   -0.3670   24.2370 H   0  0  0  0  0  0  0  0  0  0  0  0
   10.6300   -2.1040   21.2650 H   0  0  0  0  0  0  0  0  0  0  0  0
   10.8080   -2.8310   22.8350 H   0  0  0  0  0  0  0  0  0  0  0  0
  1  2  1  0
  2  3  2  0
  3  4  1  0
  4  5  2  0
  5  6  1  0
  2  7  1  0
  6  7  2  0
  7  8  1  0
  8  9  1  0
  9 10  2  0
 11  9  1  6
 11 12  1  0
 12 13  1  0
 13 14  1  0
 14 15  1  0
 15 16  1  0
 16 17  1  0
 16 18  1  0
 13 19  1  0
 18 19  1  0
 11 20  1  0
 20 21  1  0
 21 22  1  0
 11 23  1  0
 22 23  1  0
  1 24  1  0
  1 25  1  0
  1 26  1  0
  3 27  1  0
  4 28  1  0
  6 29  1  0
  8 30  1  0
 12 31  1  0
 12 32  1  0
 14 33  1  0
 14 34  1  0
 15 35  1  0
 15 36  1  0
 16 37  1  1
 17 38  1  0
 18 39  1  0
 18 40  1  0
 19 41  1  0
 19 42  1  0
 20 43  1  0
 20 44  1  0
 21 45  1  0
 21 46  1  0
 23 47  1  0
 23 48  1  0
M  END
