LIG
     RDKit          3D

 40 42  0  0  0  0  0  0  0  0999 V2000
    8.9920    6.2370   22.6120 C   0  0  0  0  0  0  0  0  0  0  0  0
   10.2740    5.9430   23.3830 C   0  0  0  0  0  0  0  0  0  0  0  0
   10.3130    6.1380   24.5460 O   0  0  0  0  0  0  0  0  0  0  0  0
   11.4270    5.4110   22.6760 N   0  0  0  0  0  0  0  0  0  0  0  0
   12.6680    5.0840   23.3500 C   0  0  0  0  0  0  0  0  0  0  0  0
   13.0500    3.6550   22.9570 C   0  0  0  0  0  0  0  0  0  0  0  0
   12.0650    2.5700   23.4230 C   0  0  0  0  0  0  0  0  0  0  0  0
   10.9400    2.7480   24.2110 C   0  0  0  0  0  0  0  0  0  0  0  0
   10.3530    1.5710   24.3790 N   0  0  0  0  0  0  0  0  0  0  0  0
   10.7615    0.4755   23.7555 C   0  0  0  0  0  0  0  0  0  0  0  0
   10.4795   -0.6255   23.2300 C   0  0  0  0  0  0  0  0  0  0  0  0
    9.0150   -1.0220   22.9690 C   0  0  0  0  0  0  0  0  0  0  0  0
    8.9500   -2.0240   24.1390 C   0  0  0  0  0  0  0  0  0  0  0  0
    8.4300   -1.7410   25.3910 N   0  0  0  0  0  0  0  0  0  0  0  0
    8.5200   -2.9160   26.2860 N   0  0  0  0  0  0  0  0  0  0  0  0
    9.0910   -3.9920   25.6370 C   0  0  0  0  0  0  0  0  0  0  0  0
    9.3350   -5.3670   26.2750 C   0  0  0  0  0  0  0  0  0  0  0  0
    9.4770   -3.5790   24.0930 S   0  0  0  0  0  0  0  0  0  0  0  0
   11.4930   -1.5020   22.6365 C   0  0  0  0  0  0  0  0  0  0  0  0
   12.6565   -0.8765   22.1780 C   0  0  0  0  0  0  0  0  0  0  0  0
   13.5865   -1.6140   21.5400 F   0  0  0  0  0  0  0  0  0  0  0  0
   12.9260    0.4460   22.6290 C   0  0  0  0  0  0  0  0  0  0  0  0
   11.9620    1.2225   23.2395 C   0  0  0  0  0  0  0  0  0  0  0  0
    8.9433    7.3096   22.4182 H   0  0  0  0  0  0  0  0  0  0  0  0
    8.3463    6.9251   23.1570 H   0  0  0  0  0  0  0  0  0  0  0  0
    8.1411    5.9247   23.2187 H   0  0  0  0  0  0  0  0  0  0  0  0
   11.2023    4.8972   21.8301 H   0  0  0  0  0  0  0  0  0  0  0  0
   13.4361    5.7672   23.0318 H   0  0  0  0  0  0  0  0  0  0  0  0
   12.5042    5.1718   24.4108 H   0  0  0  0  0  0  0  0  0  0  0  0
   14.0406    3.4104   23.3679 H   0  0  0  0  0  0  0  0  0  0  0  0
   13.1493    3.5805   21.8629 H   0  0  0  0  0  0  0  0  0  0  0  0
   10.5325    3.6557   24.6521 H   0  0  0  0  0  0  0  0  0  0  0  0
    9.5024    1.5017   25.0920 H   0  0  0  0  0  0  0  0  0  0  0  0
    8.4180   -0.2249   23.1754 H   0  0  0  0  0  0  0  0  0  0  0  0
    8.9193   -1.5122   22.0896 H   0  0  0  0  0  0  0  0  0  0  0  0
    9.6935   -6.0547   25.5141 H   0  0  0  0  0  0  0  0  0  0  0  0
    8.7014   -6.1058   25.7945 H   0  0  0  0  0  0  0  0  0  0  0  0
    8.4083   -5.7491   26.6910 H   0  0  0  0  0  0  0  0  0  0  0  0
   11.3540   -2.5263   22.5504 H   0  0  0  0  0  0  0  0  0  0  0  0
   13.9476    0.8317   22.4502 H   0  0  0  0  0  0  0  0  0  0  0  0
  1  2  1  0
  2  3  2  0
  2  4  1  0
  4  5  1  0
  5  6  1  0
  6  7  1  0
  7  8  4  0
  8  9  4  0
  9 10  4  0
 10 11  4  0
 11 12  1  0
 12 13  1  0
 13 14  4  0
 14 15  4  0
 15 16  4  0
 16 17  1  0
 16 18  4  0
 11 19  4  0
 19 20  4  0
 20 21  1  0
 20 22  4  0
 22 23  4  0
 23  7  4  0
 23 10  4  0
 18 13  4  0
  1 24  1  0
  1 25  1  0
  1 26  1  0
  4 27  1  0
  5 28  1  0
  5 29  1  0
  6 30  1  0
  6 31  1  0
  8 32  1  0
  9 33  1  0
 12 34  1  0
 12 35  1  0
 17 36  1  0
 17 37  1  0
 17 38  1  0
 19 39  1  0
 22 40  1  0
M  END
