LIG
     RDKit          3D

 37 39  0  0  0  0  0  0  0  0999 V2000
    9.3350   -5.3670   26.2750 C   0  0  0  0  0  0  0  0  0  0  0  0
    9.0910   -3.9920   25.6370 C   0  0  0  0  0  0  0  0  0  0  0  0
    8.5200   -2.9160   26.2860 N   0  0  0  0  0  0  0  0  0  0  0  0
    8.4300   -1.7410   25.3910 N   0  0  0  0  0  0  0  0  0  0  0  0
    8.9500   -2.0240   24.1390 C   0  0  0  0  0  0  0  0  0  0  0  0
    8.8510   -1.0305   22.9905 C   0  0  0  0  0  0  0  0  0  0  0  0
    7.3150   -0.3490   23.3420 C   0  0  0  0  0  0  0  0  0  0  0  0
    7.6990    1.1640   23.7480 C   0  0  0  0  0  0  0  0  0  0  0  0
    9.0240    1.2620   23.5980 C   0  0  2  0  0  0  0  0  0  0  0  0
    9.4080    1.9150   22.2270 C   0  0  0  0  0  0  0  0  0  0  0  0
   10.1930    3.1570   22.2260 N   0  0  0  0  0  0  0  0  0  0  0  0
    9.0780    1.4060   21.1760 O   0  0  0  0  0  0  0  0  0  0  0  0
   10.0400    0.0290   23.7355 C   0  0  0  0  0  0  0  0  0  0  0  0
   11.9135    0.9035   23.4130 C   0  0  0  0  0  0  0  0  0  0  0  0
   13.0570    0.4235   22.8695 C   0  0  0  0  0  0  0  0  0  0  0  0
   12.5030   -0.7650   22.1110 C   0  0  0  0  0  0  0  0  0  0  0  0
   13.2990   -1.2735   21.6890 F   0  0  0  0  0  0  0  0  0  0  0  0
   11.3470   -1.4015   22.2910 C   0  0  0  0  0  0  0  0  0  0  0  0
   10.5840   -0.4150   22.9720 N   0  0  0  0  0  0  0  0  0  0  0  0
    9.4770   -3.5790   24.0930 S   0  0  0  0  0  0  0  0  0  0  0  0
    9.8508   -5.2355   27.2216 H   0  0  0  0  0  0  0  0  0  0  0  0
    8.3840   -5.8599   26.4524 H   0  0  0  0  0  0  0  0  0  0  0  0
    8.8360   -5.4152   27.2380 H   0  0  0  0  0  0  0  0  0  0  0  0
    9.1267   -0.2062   24.5317 H   0  0  0  0  0  0  0  0  0  0  0  0
    6.9198   -0.8445   24.1565 H   0  0  0  0  0  0  0  0  0  0  0  0
    6.7554   -0.3709   22.4745 H   0  0  0  0  0  0  0  0  0  0  0  0
    7.0475    1.7738   23.1197 H   0  0  0  0  0  0  0  0  0  0  0  0
    7.3381    1.2677   24.7701 H   0  0  0  0  0  0  0  0  0  0  0  0
    9.5083    2.0470   24.3295 H   0  0  0  0  0  0  0  0  0  0  0  0
   10.0877    3.7110   23.0394 H   0  0  0  0  0  0  0  0  0  0  0  0
   10.3075    3.6769   23.0522 H   0  0  0  0  0  0  0  0  0  0  0  0
   10.2554    0.8149   22.0218 H   0  0  0  0  0  0  0  0  0  0  0  0
   12.0035    1.3452   24.5054 H   0  0  0  0  0  0  0  0  0  0  0  0
   11.4799    1.8716   22.9041 H   0  0  0  0  0  0  0  0  0  0  0  0
   13.9777    0.6303   22.8448 H   0  0  0  0  0  0  0  0  0  0  0  0
   10.8714   -1.6876   21.3659 H   0  0  0  0  0  0  0  0  0  0  0  0
   11.4826   -2.2545   22.9378 H   0  0  0  0  0  0  0  0  0  0  0  0
  1  2  1  0
  2  3  4  0
  3  4  4  0
  4  5  4  0
  5  6  1  0
  6  7  1  0
  7  8  1  0
  8  9  1  0
  9 10  1  0
 10 11  1  0
 10 12  2  0
  9 13  1  0
 13 14  1  0
 14 15  1  0
 15 16  2  0
 16 17  1  0
 16 18  1  0
 18 19  1  0
  5 20  4  0
 20  2  4  0
 19  6  1  0
 19 13  1  0
  1 21  1  0
  1 22  1  0
  1 23  1  0
  6 24  1  0
  7 25  1  0
  7 26  1  0
  8 27  1  0
  8 28  1  0
  9 29  1  1
 11 30  1  0
 11 31  1  0
 13 32  1  0
 14 33  1  0
 14 34  1  0
 15 35  1  0
 18 36  1  0
 18 37  1  0
M  END
