
     RDKit          3D

 42 44  0  0  0  0  0  0  0  0999 V2000
   22.2530   -8.4520    5.4960 C   0  0  0  0  0  0  0  0  0  0  0  0
   22.9650   -7.2550    6.0730 C   0  0  0  0  0  0  0  0  0  0  0  0
   24.1550   -6.8820    5.3990 C   0  0  1  0  0  0  0  0  0  0  0  0
   25.5090   -7.1080    6.1460 C   0  0  0  0  0  0  0  0  0  0  0  0
   26.4860   -8.0800    5.4580 C   0  0  0  0  0  0  0  0  0  0  0  0
   26.3360   -9.4900    5.5210 C   0  0  2  0  0  0  0  0  0  0  0  0
   27.6880  -10.0890    5.3120 C   0  0  0  0  0  0  0  0  0  0  0  0
   27.9220  -11.1400    6.1790 N   0  0  0  0  0  0  0  0  0  0  0  0
   28.5180  -10.8900    7.4930 C   0  0  0  0  0  0  0  0  0  0  0  0
   27.9380  -11.8460    8.5000 C   0  0  0  0  0  0  0  0  0  0  0  0
   27.9240  -13.0090    8.1380 O   0  0  0  0  0  0  0  0  0  0  0  0
   27.1070  -13.2320    6.9960 C   0  0  0  0  0  0  0  0  0  0  0  0
   27.6010  -12.5540    5.8910 C   0  0  0  0  0  0  0  0  0  0  0  0
   25.3130  -10.1820    4.2670 S   0  0  0  0  0  0  0  0  0  0  0  0
   24.1950   -9.0190    4.8380 C   0  0  2  0  0  0  0  0  0  0  0  0
   23.0640   -9.5720    5.2320 C   0  0  0  0  0  0  0  0  0  0  0  0
   24.1620   -7.7980    4.2200 C   0  0  0  0  0  0  0  0  0  0  0  0
   21.3370   -8.7100    6.0180 H   0  0  0  0  0  0  0  0  0  0  0  0
   21.9440   -8.0830    4.5460 H   0  0  0  0  0  0  0  0  0  0  0  0
   23.1820   -7.3520    7.1330 H   0  0  0  0  0  0  0  0  0  0  0  0
   22.2430   -6.4640    6.0350 H   0  0  0  0  0  0  0  0  0  0  0  0
   24.1060   -5.8650    5.0000 H   0  0  0  0  0  0  0  0  0  0  0  0
   25.9980   -6.1440    6.3120 H   0  0  0  0  0  0  0  0  0  0  0  0
   25.2870   -7.4890    7.1530 H   0  0  0  0  0  0  0  0  0  0  0  0
   27.5160   -7.7640    5.6070 H   0  0  0  0  0  0  0  0  0  0  0  0
   26.3550   -7.8750    4.3890 H   0  0  0  0  0  0  0  0  0  0  0  0
   25.8540   -9.8060    6.4450 H   0  0  0  0  0  0  0  0  0  0  0  0
   28.5640   -9.4490    5.4120 H   0  0  0  0  0  0  0  0  0  0  0  0
   27.6990  -10.5130    4.3050 H   0  0  0  0  0  0  0  0  0  0  0  0
   28.3340   -9.8310    7.7020 H   0  0  0  0  0  0  0  0  0  0  0  0
   29.6080  -10.9880    7.4160 H   0  0  0  0  0  0  0  0  0  0  0  0
   28.3890  -11.8680    9.4890 H   0  0  0  0  0  0  0  0  0  0  0  0
   26.8960  -11.5610    8.6970 H   0  0  0  0  0  0  0  0  0  0  0  0
   26.1260  -12.8140    7.2550 H   0  0  0  0  0  0  0  0  0  0  0  0
   26.9520  -14.3060    6.9250 H   0  0  0  0  0  0  0  0  0  0  0  0
   28.4660  -13.0870    5.4790 H   0  0  0  0  0  0  0  0  0  0  0  0
   26.8500  -12.5520    5.0880 H   0  0  0  0  0  0  0  0  0  0  0  0
   24.7960   -8.7230    5.6840 H   0  0  0  0  0  0  0  0  0  0  0  0
   22.7250  -10.2550    4.4770 H   0  0  0  0  0  0  0  0  0  0  0  0
   23.2430  -10.1810    6.0920 H   0  0  0  0  0  0  0  0  0  0  0  0
   23.3260   -7.6520    3.5250 H   0  0  0  0  0  0  0  0  0  0  0  0
   25.0840   -7.6450    3.6450 H   0  0  0  0  0  0  0  0  0  0  0  0
  1  2  1  0
  2  3  1  0
  3  4  1  0
  4  5  1  0
  5  6  1  0
  6  7  1  0
  7  8  1  0
  8  9  1  0
  9 10  1  0
 10 11  1  0
 11 12  1  0
  8 13  1  0
 12 13  1  0
  6 14  1  0
 14 15  1  0
  1 16  1  0
 15 16  1  0
  3 17  1  0
 15 17  1  0
  1 18  1  0
  1 19  1  0
  2 20  1  0
  2 21  1  0
  3 22  1  6
  4 23  1  0
  4 24  1  0
  5 25  1  0
  5 26  1  0
  6 27  1  1
  7 28  1  0
  7 29  1  0
  9 30  1  0
  9 31  1  0
 10 32  1  0
 10 33  1  0
 12 34  1  0
 12 35  1  0
 13 36  1  0
 13 37  1  0
 15 38  1  1
 16 39  1  0
 16 40  1  0
 17 41  1  0
 17 42  1  0
M  END
