LIG
     RDKit          3D

 35 37  0  0  0  0  0  0  0  0999 V2000
    9.3350   -5.3670   26.2750 C   0  0  0  0  0  0  0  0  0  0  0  0
    9.0910   -3.9920   25.6370 C   0  0  0  0  0  0  0  0  0  0  0  0
    8.5200   -2.9160   26.2860 N   0  0  0  0  0  0  0  0  0  0  0  0
    8.4300   -1.7410   25.3910 N   0  0  0  0  0  0  0  0  0  0  0  0
    8.9500   -2.0240   24.1390 C   0  0  0  0  0  0  0  0  0  0  0  0
    9.1235   -0.9785   22.6925 N   0  0  0  0  0  0  0  0  0  0  0  0
    8.5920   -0.2080   21.3470 C   0  0  0  0  0  0  0  0  0  0  0  0
    9.1440    0.7090   20.8350 O   0  0  0  0  0  0  0  0  0  0  0  0
    7.2840   -0.6350   20.9180 N   0  0  0  0  0  0  0  0  0  0  0  0
    6.6030    0.0510   19.8530 C   0  0  0  0  0  0  0  0  0  0  0  0
    5.3980    0.6740   20.1340 C   0  0  0  0  0  0  0  0  0  0  0  0
    4.7680    1.3310   19.0890 C   0  0  0  0  0  0  0  0  0  0  0  0
    5.3600    1.2970   17.8310 C   0  0  0  0  0  0  0  0  0  0  0  0
    6.5100    0.7030   17.6230 N   0  0  0  0  0  0  0  0  0  0  0  0
    7.1440    0.0770   18.5790 C   0  0  0  0  0  0  0  0  0  0  0  0
   10.3265   -0.4525   22.8345 C   0  0  0  0  0  0  0  0  0  0  0  0
   10.5150    0.3665   23.8505 C   0  0  0  0  0  0  0  0  0  0  0  0
   11.7765    1.0750   23.8445 C   0  0  0  0  0  0  0  0  0  0  0  0
   12.8705    0.5425   23.2630 C   0  0  0  0  0  0  0  0  0  0  0  0
   12.6885   -0.5110   22.3215 C   0  0  0  0  0  0  0  0  0  0  0  0
   13.4930   -1.4840   21.5620 F   0  0  0  0  0  0  0  0  0  0  0  0
   11.4700   -1.0965   22.2580 C   0  0  0  0  0  0  0  0  0  0  0  0
    9.4770   -3.5790   24.0930 S   0  0  0  0  0  0  0  0  0  0  0  0
   10.2116   -5.3213   26.9139 H   0  0  0  0  0  0  0  0  0  0  0  0
   10.3202   -5.7280   25.9962 H   0  0  0  0  0  0  0  0  0  0  0  0
    9.2815   -5.2744   27.3557 H   0  0  0  0  0  0  0  0  0  0  0  0
    6.8207   -1.2705   21.4470 H   0  0  0  0  0  0  0  0  0  0  0  0
    4.9446    0.6693   21.1022 H   0  0  0  0  0  0  0  0  0  0  0  0
    3.8346    1.8609   19.2411 H   0  0  0  0  0  0  0  0  0  0  0  0
    4.8827    1.7650   16.9838 H   0  0  0  0  0  0  0  0  0  0  0  0
    8.0606   -0.3900   18.3317 H   0  0  0  0  0  0  0  0  0  0  0  0
    9.8647    0.5327   24.6704 H   0  0  0  0  0  0  0  0  0  0  0  0
   11.8031    2.0541   24.3364 H   0  0  0  0  0  0  0  0  0  0  0  0
   13.8771    0.8732   23.4721 H   0  0  0  0  0  0  0  0  0  0  0  0
   11.3538   -2.0476   21.7391 H   0  0  0  0  0  0  0  0  0  0  0  0
  1  2  1  0
  2  3  4  0
  3  4  4  0
  4  5  4  0
  5  6  1  0
  6  7  1  0
  7  8  2  0
  7  9  1  0
  9 10  1  0
 10 11  4  0
 11 12  4  0
 12 13  4  0
 13 14  4  0
 14 15  4  0
  6 16  1  0
 16 17  4  0
 17 18  4  0
 18 19  4  0
 19 20  4  0
 20 21  1  0
 20 22  4  0
  5 23  4  0
 23  2  4  0
 15 10  4  0
 22 16  4  0
  1 24  1  0
  1 25  1  0
  1 26  1  0
  9 27  1  0
 11 28  1  0
 12 29  1  0
 13 30  1  0
 15 31  1  0
 17 32  1  0
 18 33  1  0
 19 34  1  0
 22 35  1  0
M  END
