
     RDKit          3D

 51 54  0  0  0  0  0  0  0  0999 V2000
    4.0920    3.2660   19.5800 C   0  0  0  0  0  0  0  0  0  0  0  0
    4.9550    2.0750   19.3870 C   0  0  0  0  0  0  0  0  0  0  0  0
    4.9890    1.5390   18.0910 C   0  0  0  0  0  0  0  0  0  0  0  0
    5.7670    0.3600   17.8190 N   0  0  0  0  0  0  0  0  0  0  0  0
    6.4740   -0.2070   18.9260 C   0  0  0  0  0  0  0  0  0  0  0  0
    6.4250    0.4450   20.2210 C   0  0  0  0  0  0  0  0  0  0  0  0
    5.6850    1.5470   20.4660 C   0  0  0  0  0  0  0  0  0  0  0  0
    7.3170   -0.3580   21.0770 N   0  0  0  0  0  0  0  0  0  0  0  0
    8.4810    0.1260   21.7090 C   0  0  0  0  0  0  0  0  0  0  0  0
    9.0210    1.1710   21.2830 O   0  0  0  0  0  0  0  0  0  0  0  0
    9.0950   -0.4780   22.8490 C   0  0  0  0  0  0  0  0  0  0  0  0
   10.6140   -0.4310   22.9420 C   0  0  1  0  0  0  0  0  0  0  0  0
   11.0900   -0.4020   24.3820 C   0  0  0  0  0  0  0  0  0  0  0  0
   12.4630   -0.3720   24.4760 C   0  0  0  0  0  0  0  0  0  0  0  0
   13.1710   -1.0130   23.4600 C   0  0  0  0  0  0  0  0  0  0  0  0
   12.4670   -1.9230   22.6710 C   0  0  0  0  0  0  0  0  0  0  0  0
   11.1920   -1.5170   22.2780 C   0  0  0  0  0  0  0  0  0  0  0  0
    7.3540   -1.6600   20.3780 N   0  0  0  0  0  0  0  0  0  0  0  0
    6.5030   -2.7400   20.7890 C   0  0  0  0  0  0  0  0  0  0  0  0
    5.5510   -3.3120   19.8760 O   0  0  0  0  0  0  0  0  0  0  0  0
    6.5870   -3.2460   22.0470 N   0  0  0  0  0  0  0  0  0  0  0  0
    5.8100   -4.4420   22.4140 C   0  0  2  0  0  0  0  0  0  0  0  0
    6.2140   -5.3620   23.1760 C   0  0  0  0  0  0  0  0  0  0  0  0
    6.1960   -5.9050   21.8510 C   0  0  0  0  0  0  0  0  0  0  0  0
    7.2720   -1.4050   18.9970 C   0  0  0  0  0  0  0  0  0  0  0  0
    3.6320    3.5870   18.6420 H   0  0  0  0  0  0  0  0  0  0  0  0
    3.2920    3.0150   20.2800 H   0  0  0  0  0  0  0  0  0  0  0  0
    4.6940    4.0800   19.9870 H   0  0  0  0  0  0  0  0  0  0  0  0
    4.4610    1.9450   17.2530 H   0  0  0  0  0  0  0  0  0  0  0  0
    5.6440    2.0120   21.4440 H   0  0  0  0  0  0  0  0  0  0  0  0
    8.9030   -1.5560   22.9180 H   0  0  0  0  0  0  0  0  0  0  0  0
    8.6150   -0.1300   23.7570 H   0  0  0  0  0  0  0  0  0  0  0  0
   10.9790    0.4890   22.4670 H   0  0  0  0  0  0  0  0  0  0  0  0
   10.5460    0.4050   24.8710 H   0  0  0  0  0  0  0  0  0  0  0  0
   10.7390   -1.3240   24.8510 H   0  0  0  0  0  0  0  0  0  0  0  0
   12.8970   -0.6880   25.4290 H   0  0  0  0  0  0  0  0  0  0  0  0
   12.7190    0.6880   24.4240 H   0  0  0  0  0  0  0  0  0  0  0  0
   13.9670   -1.4940   24.0120 H   0  0  0  0  0  0  0  0  0  0  0  0
   13.7180   -0.3040   22.8450 H   0  0  0  0  0  0  0  0  0  0  0  0
   13.0660   -2.2670   21.8320 H   0  0  0  0  0  0  0  0  0  0  0  0
   12.2730   -2.8570   23.1960 H   0  0  0  0  0  0  0  0  0  0  0  0
   10.5290   -2.3780   22.4200 H   0  0  0  0  0  0  0  0  0  0  0  0
   11.1870   -1.3270   21.2070 H   0  0  0  0  0  0  0  0  0  0  0  0
    6.6720   -2.5240   22.7590 H   0  0  0  0  0  0  0  0  0  0  0  0
    4.7480   -4.2440   22.5840 H   0  0  0  0  0  0  0  0  0  0  0  0
    7.1270   -5.1090   23.7310 H   0  0  0  0  0  0  0  0  0  0  0  0
    5.4020   -5.7060   23.8180 H   0  0  0  0  0  0  0  0  0  0  0  0
    7.1370   -6.0540   21.3330 H   0  0  0  0  0  0  0  0  0  0  0  0
    5.4330   -6.6820   21.7330 H   0  0  0  0  0  0  0  0  0  0  0  0
    8.2390   -1.2190   18.5770 H   0  0  0  0  0  0  0  0  0  0  0  0
    6.7530   -2.1840   18.4460 H   0  0  0  0  0  0  0  0  0  0  0  0
  1  2  1  0
  2  3  2  0
  3  4  1  0
  4  5  2  0
  5  6  1  0
  2  7  1  0
  6  7  2  0
  6  8  1  0
  8  9  1  0
  9 10  2  0
  9 11  1  0
 11 12  1  0
 12 13  1  0
 13 14  1  0
 14 15  1  0
 15 16  1  0
 12 17  1  0
 16 17  1  0
  8 18  1  0
 18 19  1  0
 19 20  2  0
 19 21  1  0
 21 22  1  0
 22 23  1  0
 22 24  1  0
 23 24  1  0
  5 25  1  0
 18 25  1  0
  1 26  1  0
  1 27  1  0
  1 28  1  0
  3 29  1  0
  7 30  1  0
 11 31  1  0
 11 32  1  0
 12 33  1  6
 13 34  1  0
 13 35  1  0
 14 36  1  0
 14 37  1  0
 15 38  1  0
 15 39  1  0
 16 40  1  0
 16 41  1  0
 17 42  1  0
 17 43  1  0
 21 44  1  0
 22 45  1  1
 23 46  1  0
 23 47  1  0
 24 48  1  0
 24 49  1  0
 25 50  1  0
 25 51  1  0
M  END
