
     RDKit          3D

 37 39  0  0  0  0  0  0  0  0999 V2000
    9.0660   -5.8630   26.1100 C   0  0  0  0  0  0  0  0  0  0  0  0
    8.7920   -4.4460   25.7450 C   0  0  0  0  0  0  0  0  0  0  0  0
    8.1040   -3.5820   26.5540 N   0  0  0  0  0  0  0  0  0  0  0  0
    8.0840   -2.2810   25.8990 N   0  0  0  0  0  0  0  0  0  0  0  0
    8.7480   -2.2740   24.6640 C   0  0  0  0  0  0  0  0  0  0  0  0
    8.8840   -1.0190   23.8670 C   0  0  2  0  0  0  0  0  0  0  0  0
    7.7690   -0.6770   22.9630 C   0  0  0  0  0  0  0  0  0  0  0  0
    7.6340    0.6510   22.6750 C   0  0  0  0  0  0  0  0  0  0  0  0
    8.9790    1.3220   22.9650 C   0  0  2  0  0  0  0  0  0  0  0  0
    9.1630    2.3650   22.0750 C   0  0  0  0  0  0  0  0  0  0  0  0
    9.9020    3.4710   22.2620 N   0  0  0  0  0  0  0  0  0  0  0  0
    8.5150    2.0830   20.8600 O   0  0  0  0  0  0  0  0  0  0  0  0
   10.2060    0.4390   22.6800 C   0  0  1  0  0  0  0  0  0  0  0  0
   11.5590    0.8600   23.2860 C   0  0  0  0  0  0  0  0  0  0  0  0
   12.5930    0.1100   22.7780 C   0  0  0  0  0  0  0  0  0  0  0  0
   12.3170   -1.1760   22.3260 C   0  0  0  0  0  0  0  0  0  0  0  0
   13.2990   -1.9240   21.8030 F   0  0  0  0  0  0  0  0  0  0  0  0
   11.0070   -1.6590   22.4320 C   0  0  0  0  0  0  0  0  0  0  0  0
   10.2500   -0.7420   23.3200 N   0  0  0  0  0  0  0  0  0  0  0  0
    9.4030   -3.7990   24.1750 S   0  0  0  0  0  0  0  0  0  0  0  0
    9.7370   -5.9380   26.9690 H   0  0  0  0  0  0  0  0  0  0  0  0
    9.5460   -6.3600   25.2650 H   0  0  0  0  0  0  0  0  0  0  0  0
    8.1230   -6.3480   26.3590 H   0  0  0  0  0  0  0  0  0  0  0  0
    8.8610   -0.2430   24.6410 H   0  0  0  0  0  0  0  0  0  0  0  0
    6.8530   -0.9410   23.5060 H   0  0  0  0  0  0  0  0  0  0  0  0
    7.8410   -1.4010   22.1560 H   0  0  0  0  0  0  0  0  0  0  0  0
    7.4090    0.7660   21.6100 H   0  0  0  0  0  0  0  0  0  0  0  0
    6.8290    1.0920   23.2740 H   0  0  0  0  0  0  0  0  0  0  0  0
    8.9890    1.6380   23.9960 H   0  0  0  0  0  0  0  0  0  0  0  0
    9.8340    4.1810   21.5340 H   0  0  0  0  0  0  0  0  0  0  0  0
   10.8150    3.3210   22.6670 H   0  0  0  0  0  0  0  0  0  0  0  0
   10.2890    0.3380   21.6000 H   0  0  0  0  0  0  0  0  0  0  0  0
   11.5120    0.6190   24.3530 H   0  0  0  0  0  0  0  0  0  0  0  0
   11.6450    1.9520   23.2150 H   0  0  0  0  0  0  0  0  0  0  0  0
   13.6300    0.4360   22.6800 H   0  0  0  0  0  0  0  0  0  0  0  0
   10.4280   -1.6720   21.5080 H   0  0  0  0  0  0  0  0  0  0  0  0
   10.8830   -2.6700   22.8210 H   0  0  0  0  0  0  0  0  0  0  0  0
  1  2  1  0
  2  3  2  0
  3  4  1  0
  4  5  2  0
  5  6  1  0
  6  7  1  0
  7  8  1  0
  8  9  1  0
  9 10  1  0
 10 11  1  0
 10 12  2  0
  9 13  1  0
 13 14  1  0
 14 15  1  0
 15 16  2  0
 16 17  1  0
 16 18  1  0
  6 19  1  0
 13 19  1  0
 18 19  1  0
  2 20  1  0
  5 20  1  0
  1 21  1  0
  1 22  1  0
  1 23  1  0
  6 24  1  1
  7 25  1  0
  7 26  1  0
  8 27  1  0
  8 28  1  0
  9 29  1  1
 11 30  1  0
 11 31  1  0
 13 32  1  6
 14 33  1  0
 14 34  1  0
 15 35  1  0
 18 36  1  0
 18 37  1  0
M  END
