LIG
     RDKit          3D

 30 31  0  0  0  0  0  0  0  0999 V2000
    3.7865    2.0875   19.5405 C   0  0  0  0  0  0  0  0  0  0  0  0
    4.8205    1.2595   19.0000 C   0  0  0  0  0  0  0  0  0  0  0  0
    5.2940    0.1240   19.6260 C   0  0  0  0  0  0  0  0  0  0  0  0
    6.5035   -0.4040   18.3350 C   0  0  0  0  0  0  0  0  0  0  0  0
    6.6675   -1.1590   19.0140 C   0  0  0  0  0  0  0  0  0  0  0  0
    7.3620   -2.0310   19.9170 N   0  0  0  0  0  0  0  0  0  0  0  0
    8.3210   -1.3510   20.7970 C   0  0  0  0  0  0  0  0  0  0  0  0
    6.4780   -3.0650   20.4600 C   0  0  0  0  0  0  0  0  0  0  0  0
    5.7050   -3.6090   19.7340 O   0  0  0  0  0  0  0  0  0  0  0  0
    6.5520   -3.4250   21.8840 N   0  0  0  0  0  0  0  0  0  0  0  0
    5.6750   -4.4640   22.4420 C   0  0  0  0  0  0  0  0  0  0  0  0
    5.9460   -5.8890   21.9520 C   0  0  0  0  0  0  0  0  0  0  0  0
    6.3670   -5.4690   23.3670 C   0  0  0  0  0  0  0  0  0  0  0  0
    6.3760    0.5670   17.4410 N   0  0  0  0  0  0  0  0  0  0  0  0
    5.4460    1.4735   17.8030 O   0  0  0  0  0  0  0  0  0  0  0  0
    4.1892    2.8241   20.2543 H   0  0  0  0  0  0  0  0  0  0  0  0
    3.9586    3.1515   19.3115 H   0  0  0  0  0  0  0  0  0  0  0  0
    3.7174    2.0004   20.6370 H   0  0  0  0  0  0  0  0  0  0  0  0
    5.2094   -0.4076   20.4269 H   0  0  0  0  0  0  0  0  0  0  0  0
    5.5671   -1.0863   19.8701 H   0  0  0  0  0  0  0  0  0  0  0  0
    5.8707   -2.2094   18.5483 H   0  0  0  0  0  0  0  0  0  0  0  0
    7.9194   -1.2255   21.8028 H   0  0  0  0  0  0  0  0  0  0  0  0
    7.8690   -0.4288   21.1654 H   0  0  0  0  0  0  0  0  0  0  0  0
    8.5400   -0.3709   20.3697 H   0  0  0  0  0  0  0  0  0  0  0  0
    6.7747   -2.6590   22.4770 H   0  0  0  0  0  0  0  0  0  0  0  0
    4.7072   -4.1685   22.6493 H   0  0  0  0  0  0  0  0  0  0  0  0
    5.0970   -6.5391   21.8583 H   0  0  0  0  0  0  0  0  0  0  0  0
    6.7227   -6.0236   21.2237 H   0  0  0  0  0  0  0  0  0  0  0  0
    7.4182   -5.3468   23.5481 H   0  0  0  0  0  0  0  0  0  0  0  0
    5.7918   -5.8578   24.1862 H   0  0  0  0  0  0  0  0  0  0  0  0
  1  2  1  0
  2  3  4  0
  3  4  4  0
  4  5  1  0
  5  6  1  0
  6  7  1  0
  6  8  1  0
  8  9  2  0
  8 10  1  0
 10 11  1  0
 11 12  1  0
 12 13  1  0
  4 14  4  0
 14 15  4  0
 15  2  4  0
 13 11  1  0
  1 16  1  0
  1 17  1  0
  1 18  1  0
  3 19  1  0
  5 20  1  0
  5 21  1  0
  7 22  1  0
  7 23  1  0
  7 24  1  0
 10 25  1  0
 11 26  1  0
 12 27  1  0
 12 28  1  0
 13 29  1  0
 13 30  1  0
M  END
