LIG
     RDKit          3D

 42 44  0  0  0  0  0  0  0  0999 V2000
   21.7110   -8.6060    6.3130 C   0  0  0  0  0  0  0  0  0  0  0  0
   21.8740   -7.6720    5.8455 C   0  0  0  0  0  0  0  0  0  0  0  0
   23.6155   -6.9265    5.5275 C   0  0  0  0  0  0  0  0  0  0  0  0
   25.6720   -6.7390    6.1380 C   0  0  0  0  0  0  0  0  0  0  0  0
   26.4130   -7.9350    5.8010 C   0  0  0  0  0  0  0  0  0  0  0  0
   25.8430   -9.7650    4.8055 C   0  0  0  0  0  0  0  0  0  0  0  0
   26.4220  -10.3480    5.3815 C   0  0  0  0  0  0  0  0  0  0  0  0
   27.0560  -11.0930    6.1275 N   0  0  0  0  0  0  0  0  0  0  0  0
   27.8460  -10.6350    7.1120 C   0  0  0  0  0  0  0  0  0  0  0  0
   27.9795  -11.5150    8.2905 C   0  0  0  0  0  0  0  0  0  0  0  0
   28.0630  -12.8695    8.0155 O   0  0  0  0  0  0  0  0  0  0  0  0
   27.1990  -13.3120    7.0475 C   0  0  0  0  0  0  0  0  0  0  0  0
   27.1405  -12.4350    5.8165 C   0  0  0  0  0  0  0  0  0  0  0  0
   24.2440  -10.7970    3.9930 S   0  0  0  0  0  0  0  0  0  0  0  0
   23.8055   -9.3285    5.0965 C   0  0  0  0  0  0  0  0  0  0  0  0
   22.3920   -9.6730    5.7370 C   0  0  0  0  0  0  0  0  0  0  0  0
   23.5805   -8.0945    5.0600 C   0  0  0  0  0  0  0  0  0  0  0  0
   21.9319   -8.7043    7.4757 H   0  0  0  0  0  0  0  0  0  0  0  0
   20.5926   -8.9895    6.3779 H   0  0  0  0  0  0  0  0  0  0  0  0
   21.4379   -6.6275    6.2742 H   0  0  0  0  0  0  0  0  0  0  0  0
   21.5144   -7.4202    4.7170 H   0  0  0  0  0  0  0  0  0  0  0  0
   23.4874   -6.2383    4.7404 H   0  0  0  0  0  0  0  0  0  0  0  0
   25.8001   -5.8741    5.5662 H   0  0  0  0  0  0  0  0  0  0  0  0
   25.3999   -6.5490    7.1277 H   0  0  0  0  0  0  0  0  0  0  0  0
   26.9905   -8.4829    6.6223 H   0  0  0  0  0  0  0  0  0  0  0  0
   27.2811   -7.7835    5.0776 H   0  0  0  0  0  0  0  0  0  0  0  0
   25.0544   -9.8706    6.2271 H   0  0  0  0  0  0  0  0  0  0  0  0
   27.4948   -9.3712    5.5429 H   0  0  0  0  0  0  0  0  0  0  0  0
   27.4211  -10.6357    4.3278 H   0  0  0  0  0  0  0  0  0  0  0  0
   27.4967   -9.6207    7.4891 H   0  0  0  0  0  0  0  0  0  0  0  0
   28.8963  -10.4096    6.7329 H   0  0  0  0  0  0  0  0  0  0  0  0
   28.8995  -11.2373    8.8737 H   0  0  0  0  0  0  0  0  0  0  0  0
   27.1403  -11.3452    9.0256 H   0  0  0  0  0  0  0  0  0  0  0  0
   26.1752  -13.4424    7.4827 H   0  0  0  0  0  0  0  0  0  0  0  0
   27.5092  -14.3412    6.7469 H   0  0  0  0  0  0  0  0  0  0  0  0
   28.0423  -12.6595    5.1967 H   0  0  0  0  0  0  0  0  0  0  0  0
   26.2720  -12.7856    5.2132 H   0  0  0  0  0  0  0  0  0  0  0  0
   24.2276   -9.8909    6.0009 H   0  0  0  0  0  0  0  0  0  0  0  0
   21.7940  -10.2362    4.9243 H   0  0  0  0  0  0  0  0  0  0  0  0
   22.5966  -10.5402    6.4706 H   0  0  0  0  0  0  0  0  0  0  0  0
   22.2975   -8.0827    4.5117 H   0  0  0  0  0  0  0  0  0  0  0  0
   23.7894   -7.7730    3.7005 H   0  0  0  0  0  0  0  0  0  0  0  0
  1  2  1  0
  2  3  1  0
  3  4  1  0
  4  5  1  0
  5  6  1  0
  6  7  1  0
  7  8  1  0
  8  9  1  0
  9 10  1  0
 10 11  1  0
 11 12  1  0
 12 13  1  0
  6 14  1  0
 14 15  1  0
 15 16  1  0
 15 17  1  0
 16  1  1  0
 17  3  1  0
 13  8  1  0
  1 18  1  0
  1 19  1  0
  2 20  1  0
  2 21  1  0
  3 22  1  0
  4 23  1  0
  4 24  1  0
  5 25  1  0
  5 26  1  0
  6 27  1  0
  7 28  1  0
  7 29  1  0
  9 30  1  0
  9 31  1  0
 10 32  1  0
 10 33  1  0
 12 34  1  0
 12 35  1  0
 13 36  1  0
 13 37  1  0
 15 38  1  0
 16 39  1  0
 16 40  1  0
 17 41  1  0
 17 42  1  0
M  END
