
     RDKit          3D

 38 39  0  0  0  0  0  0  0  0999 V2000
   21.6130   -6.5350    5.8750 O   0  0  0  0  0  0  0  0  0  0  0  0
   22.6320   -7.1900    5.1920 C   0  0  0  0  0  0  0  0  0  0  0  0
   22.4310   -8.5350    5.5170 C   0  0  0  0  0  0  0  0  0  0  0  0
   23.3240   -9.5420    5.2230 C   0  0  0  0  0  0  0  0  0  0  0  0
   24.4900   -9.0810    4.4020 C   0  0  1  0  0  0  0  0  0  0  0  0
   25.1170  -10.2760    3.2170 S   0  0  0  0  0  0  0  0  0  0  0  0
   26.6660  -10.6610    4.0990 C   0  0  0  0  0  0  0  0  0  0  0  0
   26.5710  -10.4830    5.4690 C   0  0  0  0  0  0  0  0  0  0  0  0
   27.6560  -11.3310    5.9930 N   0  0  0  0  0  0  0  0  0  0  0  0
   28.0110  -10.8880    7.3530 C   0  0  0  0  0  0  0  0  0  0  0  0
   27.5180  -11.7540    8.3520 C   0  0  0  0  0  0  0  0  0  0  0  0
   27.7740  -12.9330    8.1740 O   0  0  0  0  0  0  0  0  0  0  0  0
   27.0270  -13.4470    7.0800 C   0  0  0  0  0  0  0  0  0  0  0  0
   27.3500  -12.6800    5.8000 C   0  0  0  0  0  0  0  0  0  0  0  0
   24.1540   -7.8020    3.6450 C   0  0  2  0  0  0  0  0  0  0  0  0
   25.3410   -7.3770    2.9770 O   0  0  0  0  0  0  0  0  0  0  0  0
   23.6720   -6.7520    4.4090 C   0  0  0  0  0  0  0  0  0  0  0  0
   21.4070   -8.8200    5.3630 H   0  0  0  0  0  0  0  0  0  0  0  0
   22.4810   -8.3210    6.5120 H   0  0  0  0  0  0  0  0  0  0  0  0
   22.8120  -10.2690    4.5960 H   0  0  0  0  0  0  0  0  0  0  0  0
   23.6230  -10.1920    6.0290 H   0  0  0  0  0  0  0  0  0  0  0  0
   25.3740   -8.8150    4.9700 H   0  0  0  0  0  0  0  0  0  0  0  0
   27.4260  -10.1010    3.5630 H   0  0  0  0  0  0  0  0  0  0  0  0
   26.8990  -11.6640    3.7510 H   0  0  0  0  0  0  0  0  0  0  0  0
   25.6340  -10.9680    5.7680 H   0  0  0  0  0  0  0  0  0  0  0  0
   26.5630   -9.5370    5.9920 H   0  0  0  0  0  0  0  0  0  0  0  0
   29.0920  -10.7450    7.3630 H   0  0  0  0  0  0  0  0  0  0  0  0
   27.5710   -9.8900    7.3980 H   0  0  0  0  0  0  0  0  0  0  0  0
   27.8540  -11.5600    9.3690 H   0  0  0  0  0  0  0  0  0  0  0  0
   26.4270  -11.7100    8.4510 H   0  0  0  0  0  0  0  0  0  0  0  0
   25.9650  -13.2540    7.2800 H   0  0  0  0  0  0  0  0  0  0  0  0
   27.1770  -14.5250    7.0800 H   0  0  0  0  0  0  0  0  0  0  0  0
   28.1180  -13.0960    5.1560 H   0  0  0  0  0  0  0  0  0  0  0  0
   26.4300  -12.7260    5.2070 H   0  0  0  0  0  0  0  0  0  0  0  0
   23.4250   -8.0210    2.8620 H   0  0  0  0  0  0  0  0  0  0  0  0
   26.0920   -7.7450    3.4820 H   0  0  0  0  0  0  0  0  0  0  0  0
   24.4650   -6.4380    5.1020 H   0  0  0  0  0  0  0  0  0  0  0  0
   23.3520   -5.8750    3.8700 H   0  0  0  0  0  0  0  0  0  0  0  0
  1  2  2  0
  2  3  1  0
  3  4  1  0
  4  5  1  0
  5  6  1  0
  6  7  1  0
  7  8  1  0
  8  9  1  0
  9 10  1  0
 10 11  1  0
 11 12  1  0
 12 13  1  0
  9 14  1  0
 13 14  1  0
  5 15  1  0
 15 16  1  0
  2 17  1  0
 15 17  1  0
  3 18  1  0
  3 19  1  0
  4 20  1  0
  4 21  1  0
  5 22  1  1
  7 23  1  0
  7 24  1  0
  8 25  1  0
  8 26  1  0
 10 27  1  0
 10 28  1  0
 11 29  1  0
 11 30  1  0
 13 31  1  0
 13 32  1  0
 14 33  1  0
 14 34  1  0
 15 35  1  6
 16 36  1  0
 17 37  1  0
 17 38  1  0
M  END
