LIG
     RDKit          3D

 51 54  0  0  0  0  0  0  0  0999 V2000
    3.8620    2.0560   19.5360 C   0  0  0  0  0  0  0  0  0  0  0  0
    5.0520    1.2225   18.9710 C   0  0  0  0  0  0  0  0  0  0  0  0
    5.7035    1.2840   17.8095 C   0  0  0  0  0  0  0  0  0  0  0  0
    6.7615    0.5205   17.6295 N   0  0  0  0  0  0  0  0  0  0  0  0
    7.0345   -0.1650   18.6410 C   0  0  0  0  0  0  0  0  0  0  0  0
    7.0000    0.1710   20.1090 C   0  0  0  0  0  0  0  0  0  0  0  0
    5.6110    0.4090   19.7760 C   0  0  0  0  0  0  0  0  0  0  0  0
    7.9665   -0.8035   21.0615 N   0  0  0  0  0  0  0  0  0  0  0  0
    8.8650    0.3120   21.6960 C   0  0  0  0  0  0  0  0  0  0  0  0
    9.4190    1.1020   21.0000 O   0  0  0  0  0  0  0  0  0  0  0  0
    9.4090   -0.1550   23.0330 C   0  0  0  0  0  0  0  0  0  0  0  0
   10.9230   -0.0800   23.0900 C   0  0  0  0  0  0  0  0  0  0  0  0
   11.2810   -0.4020   24.5270 C   0  0  0  0  0  0  0  0  0  0  0  0
   12.7710   -0.1530   24.6900 C   0  0  0  0  0  0  0  0  0  0  0  0
   13.6100   -0.8590   23.6290 C   0  0  0  0  0  0  0  0  0  0  0  0
   12.8180   -1.7130   22.6470 C   0  0  0  0  0  0  0  0  0  0  0  0
   11.5620   -1.0470   22.0960 C   0  0  0  0  0  0  0  0  0  0  0  0
    7.3620   -2.0310   19.9170 N   0  0  0  0  0  0  0  0  0  0  0  0
    6.4780   -3.0650   20.4600 C   0  0  0  0  0  0  0  0  0  0  0  0
    5.7050   -3.6090   19.7340 O   0  0  0  0  0  0  0  0  0  0  0  0
    6.5520   -3.4250   21.8840 N   0  0  0  0  0  0  0  0  0  0  0  0
    5.6750   -4.4640   22.4420 C   0  0  0  0  0  0  0  0  0  0  0  0
    6.3670   -5.4690   23.3670 C   0  0  0  0  0  0  0  0  0  0  0  0
    5.9460   -5.8890   21.9520 C   0  0  0  0  0  0  0  0  0  0  0  0
    7.2860   -1.6460   18.4960 C   0  0  0  0  0  0  0  0  0  0  0  0
    3.1560    1.3767   20.0004 H   0  0  0  0  0  0  0  0  0  0  0  0
    3.7882    1.8969   20.6063 H   0  0  0  0  0  0  0  0  0  0  0  0
    4.2339    2.7694   20.2633 H   0  0  0  0  0  0  0  0  0  0  0  0
    5.4307    1.9200   16.9950 H   0  0  0  0  0  0  0  0  0  0  0  0
    4.8859   -0.3183   20.3751 H   0  0  0  0  0  0  0  0  0  0  0  0
    9.1127   -1.1829   23.1701 H   0  0  0  0  0  0  0  0  0  0  0  0
    9.0014    0.4874   23.7968 H   0  0  0  0  0  0  0  0  0  0  0  0
   11.1974    0.8985   22.8701 H   0  0  0  0  0  0  0  0  0  0  0  0
   10.7324    0.2532   25.1827 H   0  0  0  0  0  0  0  0  0  0  0  0
   11.0653   -1.4176   24.7980 H   0  0  0  0  0  0  0  0  0  0  0  0
   13.0954   -0.4973   25.6859 H   0  0  0  0  0  0  0  0  0  0  0  0
   12.9719    0.9295   24.6663 H   0  0  0  0  0  0  0  0  0  0  0  0
   14.3845   -1.4842   24.1194 H   0  0  0  0  0  0  0  0  0  0  0  0
   14.1838   -0.0930   23.0656 H   0  0  0  0  0  0  0  0  0  0  0  0
   13.4824   -1.9991   21.8152 H   0  0  0  0  0  0  0  0  0  0  0  0
   12.5298   -2.6617   23.1289 H   0  0  0  0  0  0  0  0  0  0  0  0
   10.8468   -1.8376   21.8171 H   0  0  0  0  0  0  0  0  0  0  0  0
   11.8115   -0.5286   21.1549 H   0  0  0  0  0  0  0  0  0  0  0  0
    6.7605   -2.6403   22.4571 H   0  0  0  0  0  0  0  0  0  0  0  0
    4.7070   -4.1682   22.6446 H   0  0  0  0  0  0  0  0  0  0  0  0
    7.4189   -5.3543   23.5468 H   0  0  0  0  0  0  0  0  0  0  0  0
    5.7910   -5.8598   24.1851 H   0  0  0  0  0  0  0  0  0  0  0  0
    6.7221   -6.0259   21.2234 H   0  0  0  0  0  0  0  0  0  0  0  0
    5.0967   -6.5393   21.8585 H   0  0  0  0  0  0  0  0  0  0  0  0
    8.2448   -1.8280   18.0412 H   0  0  0  0  0  0  0  0  0  0  0  0
    6.4682   -2.1244   17.9869 H   0  0  0  0  0  0  0  0  0  0  0  0
  1  2  1  0
  2  3  4  0
  3  4  4  0
  4  5  4  0
  5  6  4  0
  6  7  4  0
  6  8  1  0
  8  9  1  0
  9 10  2  0
  9 11  1  0
 11 12  1  0
 12 13  1  0
 13 14  1  0
 14 15  1  0
 15 16  1  0
 16 17  1  0
  8 18  1  0
 18 19  1  0
 19 20  2  0
 19 21  1  0
 21 22  1  0
 22 23  1  0
 23 24  1  0
 18 25  1  0
  7  2  4  0
 17 12  1  0
 24 22  1  0
 25  5  1  0
  1 26  1  0
  1 27  1  0
  1 28  1  0
  3 29  1  0
  7 30  1  0
 11 31  1  0
 11 32  1  0
 12 33  1  0
 13 34  1  0
 13 35  1  0
 14 36  1  0
 14 37  1  0
 15 38  1  0
 15 39  1  0
 16 40  1  0
 16 41  1  0
 17 42  1  0
 17 43  1  0
 21 44  1  0
 22 45  1  0
 23 46  1  0
 23 47  1  0
 24 48  1  0
 24 49  1  0
 25 50  1  0
 25 51  1  0
M  END
