
     RDKit          3D

 41 44  0  0  0  0  0  0  0  0999 V2000
    9.0330   -5.2910   26.1150 C   0  0  0  0  0  0  0  0  0  0  0  0
    8.7230   -3.9550   25.4720 C   0  0  0  0  0  0  0  0  0  0  0  0
    8.1430   -2.9660   26.2320 N   0  0  0  0  0  0  0  0  0  0  0  0
    7.9620   -1.7760   25.3800 N   0  0  0  0  0  0  0  0  0  0  0  0
    8.4230   -1.9830   24.0560 C   0  0  0  0  0  0  0  0  0  0  0  0
    8.4000   -0.9590   22.8970 C   0  0  0  0  0  0  0  0  0  0  0  0
    9.7580   -0.5330   22.6750 N   0  0  0  0  0  0  0  0  0  0  0  0
   10.8820   -1.3390   22.9620 C   0  0  1  0  0  0  0  0  0  0  0  0
   12.1230   -1.2970   22.3520 C   0  0  0  0  0  0  0  0  0  0  0  0
   13.0570   -0.2000   22.8770 C   0  0  0  0  0  0  0  0  0  0  0  0
   12.3580    1.0090   23.0770 C   0  0  0  0  0  0  0  0  0  0  0  0
   12.9580    2.3660   22.8250 C   0  0  0  0  0  0  0  0  0  0  0  0
   12.1810    3.6510   23.0180 C   0  0  0  0  0  0  0  0  0  0  0  0
   10.8970    3.5120   23.4560 C   0  0  0  0  0  0  0  0  0  0  0  0
    9.9520    4.9450   23.6930 S   0  0  1  0  0  0  0  0  0  0  0  0
   11.1130    6.1390   23.4950 N   0  0  0  0  0  0  0  0  0  0  0  0
    9.0480    5.0470   22.5820 O   0  0  0  0  0  0  0  0  0  0  0  0
    9.3780    5.0410   25.0210 O   0  0  0  0  0  0  0  0  0  0  0  0
   10.3730    2.2400   23.7010 C   0  0  0  0  0  0  0  0  0  0  0  0
   11.0400    1.0140   23.5320 C   0  0  0  0  0  0  0  0  0  0  0  0
   10.4940   -0.1780   23.7830 N   0  0  1  0  0  0  0  0  0  0  0  0
   10.0710   -0.3800   25.0590 C   0  0  0  0  0  0  0  0  0  0  0  0
    9.0470   -3.5600   23.8330 S   0  0  0  0  0  0  0  0  0  0  0  0
    8.3040   -6.0550   25.8340 H   0  0  0  0  0  0  0  0  0  0  0  0
    9.0050   -5.1850   27.2030 H   0  0  0  0  0  0  0  0  0  0  0  0
   10.0280   -5.6260   25.8060 H   0  0  0  0  0  0  0  0  0  0  0  0
    7.9780   -1.4750   22.0260 H   0  0  0  0  0  0  0  0  0  0  0  0
    7.8090   -0.0530   22.9950 H   0  0  0  0  0  0  0  0  0  0  0  0
   10.5670   -2.3240   23.2610 H   0  0  0  0  0  0  0  0  0  0  0  0
   12.6160   -2.2440   22.5860 H   0  0  0  0  0  0  0  0  0  0  0  0
   12.0010   -1.2910   21.2850 H   0  0  0  0  0  0  0  0  0  0  0  0
   13.3860   -0.5220   23.8700 H   0  0  0  0  0  0  0  0  0  0  0  0
   13.9830   -0.0920   22.3350 H   0  0  0  0  0  0  0  0  0  0  0  0
   13.9880    2.4320   22.4930 H   0  0  0  0  0  0  0  0  0  0  0  0
   12.5890    4.6430   22.8330 H   0  0  0  0  0  0  0  0  0  0  0  0
   11.1510    6.3910   22.5160 H   0  0  0  0  0  0  0  0  0  0  0  0
   11.0060    6.9600   24.0850 H   0  0  0  0  0  0  0  0  0  0  0  0
    9.3430    2.1730   24.0550 H   0  0  0  0  0  0  0  0  0  0  0  0
    9.3570    0.3680   25.3950 H   0  0  0  0  0  0  0  0  0  0  0  0
   10.9490   -0.3130   25.7020 H   0  0  0  0  0  0  0  0  0  0  0  0
    9.6700   -1.3880   25.1640 H   0  0  0  0  0  0  0  0  0  0  0  0
  1  2  1  0
  2  3  2  0
  3  4  1  0
  4  5  2  0
  5  6  1  0
  6  7  1  0
  7  8  1  0
  8  9  1  0
  9 10  1  0
 10 11  1  0
 11 12  2  0
 12 13  1  0
 13 14  2  0
 14 15  1  0
 15 16  1  6
 15 17  2  0
 15 18  2  0
 14 19  1  0
 11 20  1  0
 19 20  2  0
  7 21  1  0
  8 21  1  0
 20 21  1  0
 21 22  1  1
  2 23  1  0
  5 23  1  0
  1 24  1  0
  1 25  1  0
  1 26  1  0
  6 27  1  0
  6 28  1  0
  8 29  1  1
  9 30  1  0
  9 31  1  0
 10 32  1  0
 10 33  1  0
 12 34  1  0
 13 35  1  0
 16 36  1  0
 16 37  1  0
 19 38  1  0
 22 39  1  0
 22 40  1  0
 22 41  1  0
M  CHG  1  21   1
M  END
