LIG
     RDKit          3D

 38 39  0  0  0  0  0  0  0  0999 V2000
   10.0290   -0.6240   22.5460 C   0  0  0  0  0  0  0  0  0  0  0  0
    9.1310   -0.0090   21.4750 C   0  0  0  0  0  0  0  0  0  0  0  0
    9.4550    1.0030   20.9560 O   0  0  0  0  0  0  0  0  0  0  0  0
    8.1035   -1.0040   20.9485 C   0  0  0  0  0  0  0  0  0  0  0  0
    7.1970   -1.0535   19.9965 N   0  0  0  0  0  0  0  0  0  0  0  0
    7.2860   -1.6460   18.4960 C   0  0  0  0  0  0  0  0  0  0  0  0
    6.9240   -0.2505   18.5675 C   0  0  0  0  0  0  0  0  0  0  0  0
    6.5875    0.4775   17.6160 N   0  0  0  0  0  0  0  0  0  0  0  0
    5.5605    1.2570   17.9080 O   0  0  0  0  0  0  0  0  0  0  0  0
    5.0135    1.1655   19.1195 C   0  0  0  0  0  0  0  0  0  0  0  0
    3.8620    2.0560   19.5360 C   0  0  0  0  0  0  0  0  0  0  0  0
    5.6510    0.3000   19.8565 C   0  0  0  0  0  0  0  0  0  0  0  0
    5.3930    0.6630   21.8670 C   0  0  0  0  0  0  0  0  0  0  0  0
    6.4780   -3.0650   20.4600 C   0  0  0  0  0  0  0  0  0  0  0  0
    5.7050   -3.6090   19.7340 O   0  0  0  0  0  0  0  0  0  0  0  0
    6.5520   -3.4250   21.8840 N   0  0  0  0  0  0  0  0  0  0  0  0
    5.6750   -4.4640   22.4420 C   0  0  0  0  0  0  0  0  0  0  0  0
    5.9460   -5.8890   21.9520 C   0  0  0  0  0  0  0  0  0  0  0  0
    6.3670   -5.4690   23.3670 C   0  0  0  0  0  0  0  0  0  0  0  0
   10.9430   -0.0364   22.6220 H   0  0  0  0  0  0  0  0  0  0  0  0
    9.5074   -0.6076   23.5026 H   0  0  0  0  0  0  0  0  0  0  0  0
   10.2219    0.1206   23.3170 H   0  0  0  0  0  0  0  0  0  0  0  0
    8.7608   -2.0536   20.8943 H   0  0  0  0  0  0  0  0  0  0  0  0
    7.5650   -1.3720   22.0007 H   0  0  0  0  0  0  0  0  0  0  0  0
    8.2076   -1.7756   18.3245 H   0  0  0  0  0  0  0  0  0  0  0  0
    6.5118   -2.2161   18.4548 H   0  0  0  0  0  0  0  0  0  0  0  0
    3.0607    1.4421   19.9410 H   0  0  0  0  0  0  0  0  0  0  0  0
    2.9673    1.7861   18.9789 H   0  0  0  0  0  0  0  0  0  0  0  0
    3.6612    1.9413   20.5983 H   0  0  0  0  0  0  0  0  0  0  0  0
    4.4533    1.0671   21.7787 H   0  0  0  0  0  0  0  0  0  0  0  0
    5.2815    1.6789   21.7799 H   0  0  0  0  0  0  0  0  0  0  0  0
    6.2110    1.2830   21.9535 H   0  0  0  0  0  0  0  0  0  0  0  0
    6.6785   -2.6099   22.4530 H   0  0  0  0  0  0  0  0  0  0  0  0
    7.6486   -4.7706   21.9455 H   0  0  0  0  0  0  0  0  0  0  0  0
    5.1126   -6.5607   21.8699 H   0  0  0  0  0  0  0  0  0  0  0  0
    6.7263   -6.0179   21.2255 H   0  0  0  0  0  0  0  0  0  0  0  0
    7.4138   -5.3178   23.5498 H   0  0  0  0  0  0  0  0  0  0  0  0
    5.7981   -5.8595   24.1891 H   0  0  0  0  0  0  0  0  0  0  0  0
  1  2  1  0
  2  3  2  0
  2  4  1  0
  4  5  1  0
  5  6  1  0
  6  7  1  0
  7  8  4  0
  8  9  4  0
  9 10  4  0
 10 11  1  0
 10 12  4  0
 12 13  1  0
  5 14  1  0
 14 15  2  0
 14 16  1  0
 16 17  1  0
 17 18  1  0
 18 19  1  0
 12  7  4  0
 19 17  1  0
  1 20  1  0
  1 21  1  0
  1 22  1  0
  4 23  1  0
  4 24  1  0
  6 25  1  0
  6 26  1  0
 11 27  1  0
 11 28  1  0
 11 29  1  0
 13 30  1  0
 13 31  1  0
 13 32  1  0
 16 33  1  0
 17 34  1  0
 18 35  1  0
 18 36  1  0
 19 37  1  0
 19 38  1  0
M  END
