LIG
     RDKit          3D

 50 52  0  0  0  0  0  0  0  0999 V2000
    8.3210   -1.3510   20.7970 C   0  0  0  0  0  0  0  0  0  0  0  0
    7.3620   -2.0310   19.9170 N   0  0  0  0  0  0  0  0  0  0  0  0
    7.2860   -1.6460   18.4960 C   0  0  0  0  0  0  0  0  0  0  0  0
    6.5700   -0.2405   18.7745 C   0  0  0  0  0  0  0  0  0  0  0  0
    5.6585    0.1445   19.7520 C   0  0  0  0  0  0  0  0  0  0  0  0
    4.3495    1.6105   19.7345 C   0  0  0  0  0  0  0  0  0  0  0  0
    3.8370    1.6420   20.9890 C   0  0  0  0  0  0  0  0  0  0  0  0
    4.3320    1.7170   22.4340 C   0  0  0  0  0  0  0  0  0  0  0  0
    3.3230    2.4740   23.1750 N   0  0  0  0  0  0  0  0  0  0  0  0
    2.1860    1.8200   23.8150 C   0  0  0  0  0  0  0  0  0  0  0  0
    2.0580    0.6400   23.7610 O   0  0  0  0  0  0  0  0  0  0  0  0
    1.1280    2.6340   24.5580 C   0  0  0  0  0  0  0  0  0  0  0  0
   -0.1860    2.1670   24.5890 C   0  0  0  0  0  0  0  0  0  0  0  0
   -1.1770    2.8770   25.2530 C   0  0  0  0  0  0  0  0  0  0  0  0
   -0.8610    4.0710   25.8830 C   0  0  0  0  0  0  0  0  0  0  0  0
    0.4450    4.5400   25.8480 C   0  0  0  0  0  0  0  0  0  0  0  0
    1.4450    3.8310   25.1930 C   0  0  0  0  0  0  0  0  0  0  0  0
    2.7270    4.3200   25.1830 F   0  0  0  0  0  0  0  0  0  0  0  0
    4.8420    1.4495   18.7580 C   0  0  0  0  0  0  0  0  0  0  0  0
    5.6025    1.3905   17.7095 C   0  0  0  0  0  0  0  0  0  0  0  0
    6.5405    0.4805   17.6890 N   0  0  0  0  0  0  0  0  0  0  0  0
    6.4780   -3.0650   20.4600 C   0  0  0  0  0  0  0  0  0  0  0  0
    5.7050   -3.6090   19.7340 O   0  0  0  0  0  0  0  0  0  0  0  0
    6.5520   -3.4250   21.8840 N   0  0  0  0  0  0  0  0  0  0  0  0
    5.6750   -4.4640   22.4420 C   0  0  0  0  0  0  0  0  0  0  0  0
    5.9460   -5.8890   21.9520 C   0  0  0  0  0  0  0  0  0  0  0  0
    6.3670   -5.4690   23.3670 C   0  0  0  0  0  0  0  0  0  0  0  0
    7.8144   -0.6082   21.4152 H   0  0  0  0  0  0  0  0  0  0  0  0
    8.7962   -2.0965   21.4392 H   0  0  0  0  0  0  0  0  0  0  0  0
    9.0725   -0.8373   20.1941 H   0  0  0  0  0  0  0  0  0  0  0  0
    6.6324   -2.2450   17.9917 H   0  0  0  0  0  0  0  0  0  0  0  0
    8.1995   -1.4706   18.0836 H   0  0  0  0  0  0  0  0  0  0  0  0
    5.5007   -0.3230   20.7406 H   0  0  0  0  0  0  0  0  0  0  0  0
    2.9131    2.4846   20.9744 H   0  0  0  0  0  0  0  0  0  0  0  0
    2.9725    0.7389   21.0523 H   0  0  0  0  0  0  0  0  0  0  0  0
    4.4211    0.7425   22.8702 H   0  0  0  0  0  0  0  0  0  0  0  0
    5.2572    2.2532   22.5030 H   0  0  0  0  0  0  0  0  0  0  0  0
    3.4981    3.4293   23.4404 H   0  0  0  0  0  0  0  0  0  0  0  0
   -0.4476    1.2330   24.0814 H   0  0  0  0  0  0  0  0  0  0  0  0
   -2.1986    2.4986   25.2749 H   0  0  0  0  0  0  0  0  0  0  0  0
   -1.6318    4.6364   26.4018 H   0  0  0  0  0  0  0  0  0  0  0  0
    0.7003    5.4842   26.3424 H   0  0  0  0  0  0  0  0  0  0  0  0
    3.7676    0.6558   18.1121 H   0  0  0  0  0  0  0  0  0  0  0  0
    5.5272    2.0286   16.8592 H   0  0  0  0  0  0  0  0  0  0  0  0
    7.4517   -3.3324   22.2787 H   0  0  0  0  0  0  0  0  0  0  0  0
    7.6396   -4.7735   21.9265 H   0  0  0  0  0  0  0  0  0  0  0  0
    6.7172   -6.0084   21.2139 H   0  0  0  0  0  0  0  0  0  0  0  0
    5.1036   -6.5483   21.8586 H   0  0  0  0  0  0  0  0  0  0  0  0
    5.8026   -5.8800   24.1797 H   0  0  0  0  0  0  0  0  0  0  0  0
    7.4156   -5.3337   23.5477 H   0  0  0  0  0  0  0  0  0  0  0  0
  1  2  1  0
  2  3  1  0
  3  4  1  0
  4  5  4  0
  5  6  4  0
  6  7  1  0
  7  8  1  0
  8  9  1  0
  9 10  1  0
 10 11  2  0
 10 12  1  0
 12 13  4  0
 13 14  4  0
 14 15  4  0
 15 16  4  0
 16 17  4  0
 17 18  1  0
  6 19  4  0
 19 20  4  0
 20 21  4  0
  2 22  1  0
 22 23  2  0
 22 24  1  0
 24 25  1  0
 25 26  1  0
 26 27  1  0
 21  4  4  0
 27 25  1  0
 17 12  4  0
  1 28  1  0
  1 29  1  0
  1 30  1  0
  3 31  1  0
  3 32  1  0
  5 33  1  0
  7 34  1  0
  7 35  1  0
  8 36  1  0
  8 37  1  0
  9 38  1  0
 13 39  1  0
 14 40  1  0
 15 41  1  0
 16 42  1  0
 19 43  1  0
 20 44  1  0
 24 45  1  0
 25 46  1  0
 26 47  1  0
 26 48  1  0
 27 49  1  0
 27 50  1  0
M  END
