LIG
     RDKit          3D

 37 39  0  0  0  0  0  0  0  0999 V2000
    9.3040   -4.2150   27.8200 O   0  0  0  0  0  0  0  0  0  0  0  0
    9.2585   -5.0915   26.4150 C   0  0  0  0  0  0  0  0  0  0  0  0
   10.4200   -4.6660   25.8330 C   0  0  0  0  0  0  0  0  0  0  0  0
   10.6550   -3.2590   25.2740 C   0  0  0  0  0  0  0  0  0  0  0  0
    9.5105   -3.1335   24.3220 S   0  0  0  0  0  4  0  0  0  0  0  0
    9.3245   -1.7620   24.1925 C   0  0  0  0  0  0  0  0  0  0  0  0
    9.0150   -1.0220   22.9690 C   0  0  0  0  0  0  0  0  0  0  0  0
   10.6050   -0.7960   23.2580 N   0  0  0  0  0  0  0  0  0  0  0  0
   10.4750    0.3550   23.7830 C   0  0  0  0  0  0  0  0  0  0  0  0
   11.8865    0.6140   23.7740 C   0  0  0  0  0  0  0  0  0  0  0  0
   13.0060    0.2640   23.1555 C   0  0  0  0  0  0  0  0  0  0  0  0
   12.8300   -0.9395   22.1900 C   0  0  0  0  0  0  0  0  0  0  0  0
   13.4930   -1.4840   21.5620 F   0  0  0  0  0  0  0  0  0  0  0  0
   11.4970   -1.6050   22.4815 C   0  0  0  0  0  0  0  0  0  0  0  0
    8.4300   -1.7410   25.3910 N   0  0  0  0  0  0  0  0  0  0  0  0
    8.4255   -2.8755   25.8110 N   0  0  0  0  0  0  0  0  0  0  0  0
    8.5850   -4.1305   25.7225 C   0  0  0  0  0  0  0  0  0  0  0  0
    9.4254   -3.3420   27.4773 H   0  0  0  0  0  0  0  0  0  0  0  0
    9.8122   -3.1029   26.4774 H   0  0  0  0  0  0  0  0  0  0  0  0
   10.7961   -5.4027   24.9590 H   0  0  0  0  0  0  0  0  0  0  0  0
   11.3575   -4.8670   26.5513 H   0  0  0  0  0  0  0  0  0  0  0  0
   11.6416   -3.2563   24.7739 H   0  0  0  0  0  0  0  0  0  0  0  0
   10.7211   -2.5441   26.1152 H   0  0  0  0  0  0  0  0  0  0  0  0
    9.5878   -4.0723   23.2323 H   0  0  0  0  0  0  0  0  0  0  0  0
    7.8032   -2.4299   23.7086 H   0  0  0  0  0  0  0  0  0  0  0  0
    9.0770   -1.6599   22.2259 H   0  0  0  0  0  0  0  0  0  0  0  0
    8.5943   -0.2011   23.0621 H   0  0  0  0  0  0  0  0  0  0  0  0
   10.1668    0.3670   24.8012 H   0  0  0  0  0  0  0  0  0  0  0  0
    9.9560    1.0807   23.1992 H   0  0  0  0  0  0  0  0  0  0  0  0
   12.1989    0.5787   24.9989 H   0  0  0  0  0  0  0  0  0  0  0  0
   11.9348    1.8768   23.8315 H   0  0  0  0  0  0  0  0  0  0  0  0
   13.9779    0.6241   23.1912 H   0  0  0  0  0  0  0  0  0  0  0  0
   11.7215   -2.5367   23.0170 H   0  0  0  0  0  0  0  0  0  0  0  0
   11.0663   -1.8820   21.5084 H   0  0  0  0  0  0  0  0  0  0  0  0
    8.8288   -0.9975   26.0094 H   0  0  0  0  0  0  0  0  0  0  0  0
    7.3275   -2.8832   26.4580 H   0  0  0  0  0  0  0  0  0  0  0  0
    7.7158   -4.4477   24.9904 H   0  0  0  0  0  0  0  0  0  0  0  0
  1  2  1  0
  2  3  1  0
  3  4  1  0
  4  5  1  0
  5  6  1  0
  6  7  1  0
  7  8  1  0
  8  9  1  0
  9 10  1  0
 10 11  1  0
 11 12  2  0
 12 13  1  0
 12 14  1  0
  6 15  1  0
 15 16  1  0
 16 17  1  0
 17  2  1  0
 17  5  1  0
 14  8  1  0
  1 18  1  0
  2 19  1  0
  3 20  1  0
  3 21  1  0
  4 22  1  0
  4 23  1  0
  5 24  1  0
  6 25  1  0
  7 26  1  0
  7 27  1  0
  9 28  1  0
  9 29  1  0
 10 30  1  0
 10 31  1  0
 11 32  1  0
 14 33  1  0
 14 34  1  0
 15 35  1  0
 16 36  1  0
 17 37  1  0
M  END
