
     RDKit          3D

 60 64  0  0  0  0  0  0  0  0999 V2000
   11.4040   -1.8240   21.6780 C   0  0  0  0  0  0  0  0  0  0  0  0
   12.5880   -0.9700   22.0440 C   0  0  0  0  0  0  0  0  0  0  0  0
   13.7660   -1.4740   21.7310 F   0  0  0  0  0  0  0  0  0  0  0  0
   12.5220    0.3040   22.6580 C   0  0  0  0  0  0  0  0  0  0  0  0
   11.1730    0.9370   23.0130 C   0  0  0  0  0  0  0  0  0  0  0  0
   10.0790    0.3680   22.1410 C   0  0  0  0  0  0  0  0  0  0  0  0
    9.3760   -0.7300   22.7140 N   0  0  0  0  0  0  0  0  0  0  0  0
    8.5490   -0.1270   23.7510 C   0  0  0  0  0  0  0  0  0  0  0  0
    8.9090   -0.8030   24.8530 N   0  0  2  0  0  0  0  0  0  0  0  0
   10.1490   -0.4340   25.3540 C   0  0  0  0  0  0  0  0  0  0  0  0
   11.3110   -0.4100   24.5600 C   0  0  1  0  0  0  0  0  0  0  0  0
   12.6760   -0.5470   25.1680 C   0  0  0  0  0  0  0  0  0  0  0  0
   13.3530   -1.7300   24.5760 C   0  0  0  0  0  0  0  0  0  0  0  0
   12.6100   -2.2080   23.6120 C   0  0  0  0  0  0  0  0  0  0  0  0
   12.9260   -3.1870   22.8220 F   0  0  0  0  0  0  0  0  0  0  0  0
   11.3810   -1.4160   23.6460 N   0  0  0  0  0  0  0  0  0  0  0  0
   10.1630   -1.8600   23.2420 C   0  0  1  0  0  0  0  0  0  0  0  0
    9.1670   -1.9350   24.1740 C   0  0  0  0  0  0  0  0  0  0  0  0
    8.3090   -2.9370   24.5820 C   0  0  0  0  0  0  0  0  0  0  0  0
    8.2830   -4.2330   24.1060 C   0  0  0  0  0  0  0  0  0  0  0  0
    7.4530   -2.4380   25.5840 O   0  0  0  0  0  0  0  0  0  0  0  0
    7.8370   -1.1930   25.7380 C   0  0  0  0  0  0  0  0  0  0  0  0
    7.2890   -0.3090   26.6210 C   0  0  0  0  0  0  0  0  0  0  0  0
    7.3640   -0.5750   27.9680 O   0  0  0  0  0  0  0  0  0  0  0  0
    6.9140    0.4920   28.6640 C   0  0  0  0  0  0  0  0  0  0  0  0
    7.7330    1.6340   28.6290 C   0  0  0  0  0  0  0  0  0  0  0  0
    7.3440    2.9000   29.3640 C   0  0  0  0  0  0  0  0  0  0  0  0
    6.0040    2.7770   30.1140 C   0  0  0  0  0  0  0  0  0  0  0  0
    5.6210    4.0210   30.8380 C   0  0  0  0  0  0  0  0  0  0  0  0
    5.2590    1.5910   30.0850 C   0  0  0  0  0  0  0  0  0  0  0  0
    5.7070    0.4680   29.3720 C   0  0  0  0  0  0  0  0  0  0  0  0
   11.0380   -2.4320   22.5050 H   0  0  0  0  0  0  0  0  0  0  0  0
   11.7250   -2.5070   20.8930 H   0  0  0  0  0  0  0  0  0  0  0  0
   10.5980   -1.1990   21.2980 H   0  0  0  0  0  0  0  0  0  0  0  0
   13.4320    0.8560   22.8810 H   0  0  0  0  0  0  0  0  0  0  0  0
   11.0930    2.0210   22.9450 H   0  0  0  0  0  0  0  0  0  0  0  0
   10.9450    0.7320   24.0580 H   0  0  0  0  0  0  0  0  0  0  0  0
    9.3100    1.0710   21.8320 H   0  0  0  0  0  0  0  0  0  0  0  0
   10.3670   -0.0690   21.2200 H   0  0  0  0  0  0  0  0  0  0  0  0
    7.5010   -0.1080   23.4830 H   0  0  0  0  0  0  0  0  0  0  0  0
    8.8300    0.9160   23.8580 H   0  0  0  0  0  0  0  0  0  0  0  0
    9.9250    0.4670   25.8980 H   0  0  0  0  0  0  0  0  0  0  0  0
   10.4020   -1.1490   26.0910 H   0  0  0  0  0  0  0  0  0  0  0  0
   11.2860    0.5070   23.9740 H   0  0  0  0  0  0  0  0  0  0  0  0
   13.2090    0.2330   24.6500 H   0  0  0  0  0  0  0  0  0  0  0  0
   12.8450   -0.3460   26.1960 H   0  0  0  0  0  0  0  0  0  0  0  0
   14.3190   -2.1140   24.8580 H   0  0  0  0  0  0  0  0  0  0  0  0
   10.1450   -2.7570   22.6070 H   0  0  0  0  0  0  0  0  0  0  0  0
    7.5390   -4.9810   24.3460 H   0  0  0  0  0  0  0  0  0  0  0  0
    9.1930   -4.6670   24.4680 H   0  0  0  0  0  0  0  0  0  0  0  0
    8.3510   -4.2130   23.0160 H   0  0  0  0  0  0  0  0  0  0  0  0
    7.6650    0.6940   26.3840 H   0  0  0  0  0  0  0  0  0  0  0  0
    6.2280   -0.2760   26.3760 H   0  0  0  0  0  0  0  0  0  0  0  0
    8.6490    1.5240   28.0400 H   0  0  0  0  0  0  0  0  0  0  0  0
    7.9370    3.8080   29.3710 H   0  0  0  0  0  0  0  0  0  0  0  0
    4.5310    4.0780   30.9760 H   0  0  0  0  0  0  0  0  0  0  0  0
    5.9480    4.8980   30.2700 H   0  0  0  0  0  0  0  0  0  0  0  0
    6.0790    4.0440   31.8390 H   0  0  0  0  0  0  0  0  0  0  0  0
    4.3130    1.5390   30.6260 H   0  0  0  0  0  0  0  0  0  0  0  0
    5.0840   -0.4230   29.3890 H   0  0  0  0  0  0  0  0  0  0  0  0
  1  2  1  0
  2  3  1  0
  2  4  2  3
  4  5  1  0
  5  6  1  0
  6  7  1  0
  7  8  1  0
  8  9  1  0
  9 10  1  0
 10 11  1  0
 11 12  1  0
 12 13  1  0
 13 14  2  0
 14 15  1  0
 11 16  1  0
 14 16  1  0
  7 17  1  0
 16 17  1  0
  9 18  1  0
 17 18  1  0
 18 19  2  0
 19 20  1  0
 19 21  1  0
  9 22  1  1
 21 22  2  0
 22 23  1  0
 23 24  1  0
 24 25  1  0
 25 26  2  0
 26 27  1  0
 27 28  2  0
 28 29  1  0
 28 30  1  0
 25 31  1  0
 30 31  2  0
  1 32  1  0
  1 33  1  0
  1 34  1  0
  4 35  1  0
  5 36  1  0
  5 37  1  0
  6 38  1  0
  6 39  1  0
  8 40  1  0
  8 41  1  0
 10 42  1  0
 10 43  1  0
 11 44  1  6
 12 45  1  0
 12 46  1  0
 13 47  1  0
 17 48  1  6
 20 49  1  0
 20 50  1  0
 20 51  1  0
 23 52  1  0
 23 53  1  0
 26 54  1  0
 27 55  1  0
 29 56  1  0
 29 57  1  0
 29 58  1  0
 30 59  1  0
 31 60  1  0
M  CHG  2   9   1  21   1
M  END
