
     RDKit          3D

 53 56  0  0  0  0  0  0  0  0999 V2000
    3.4280    2.2740   19.4600 C   0  0  0  0  0  0  0  0  0  0  0  0
    4.5460    1.4330   18.9300 C   0  0  0  0  0  0  0  0  0  0  0  0
    4.9770    0.2490   19.4440 C   0  0  0  0  0  0  0  0  0  0  0  0
    6.0930   -0.1920   18.5800 C   0  0  0  0  0  0  0  0  0  0  0  0
    6.7930   -1.4520   18.8550 C   0  0  0  0  0  0  0  0  0  0  0  0
    6.5120   -1.9010   20.2120 N   0  0  0  0  0  0  0  0  0  0  0  0
    7.7090   -1.7880   21.0790 C   0  0  0  0  0  0  0  0  0  0  0  0
    5.7810   -3.1450   20.5120 C   0  0  0  0  0  0  0  0  0  0  0  0
    5.3040   -3.8540   19.6210 O   0  0  0  0  0  0  0  0  0  0  0  0
    5.6800   -3.4660   21.6300 N   0  0  0  0  0  0  0  0  0  0  0  0
    6.3920   -4.5820   21.9420 C   0  0  2  0  0  0  0  0  0  0  0  0
    5.7990   -5.8630   22.0780 C   0  0  0  0  0  0  0  0  0  0  0  0
    6.2970   -5.4350   23.3570 C   0  0  1  0  0  0  0  0  0  0  0  0
    7.5500   -5.6730   23.7740 C   0  0  0  0  0  0  0  0  0  0  0  0
    8.3040   -4.5070   23.7110 C   0  0  0  0  0  0  0  0  0  0  0  0
    7.9400   -3.4000   24.4460 N   0  0  0  0  0  0  0  0  0  0  0  0
    8.4640   -2.1930   23.9410 C   0  0  0  0  0  0  0  0  0  0  0  0
    7.7390   -1.0550   24.0730 C   0  0  0  0  0  0  0  0  0  0  0  0
    8.2070    0.1280   23.5760 C   0  0  0  0  0  0  0  0  0  0  0  0
    9.5330    0.1600   22.8920 C   0  0  0  0  0  0  0  0  0  0  0  0
    9.9140    1.3900   22.4420 C   0  0  0  0  0  0  0  0  0  0  0  0
   10.1330    2.4770   22.1410 N   0  0  0  0  0  0  0  0  0  0  0  0
   10.3140   -0.9310   22.7260 N   0  0  0  0  0  0  0  0  0  0  0  0
    9.7190   -2.1400   23.2860 C   0  0  0  0  0  0  0  0  0  0  0  0
    6.7650   -3.3640   25.1710 C   0  0  0  0  0  0  0  0  0  0  0  0
    5.9640   -4.6310   25.4690 C   0  0  0  0  0  0  0  0  0  0  0  0
    5.4820   -5.0930   24.2160 O   0  0  0  0  0  0  0  0  0  0  0  0
    6.2740    0.7150   17.6180 N   0  0  0  0  0  0  0  0  0  0  0  0
    5.3180    1.7250   17.8340 O   0  0  0  0  0  0  0  0  0  0  0  0
    2.8740    2.7630   18.6520 H   0  0  0  0  0  0  0  0  0  0  0  0
    2.7330    1.6350   20.0120 H   0  0  0  0  0  0  0  0  0  0  0  0
    3.8390    3.0400   20.1220 H   0  0  0  0  0  0  0  0  0  0  0  0
    4.5930   -0.2800   20.3100 H   0  0  0  0  0  0  0  0  0  0  0  0
    6.4460   -2.1780   18.1070 H   0  0  0  0  0  0  0  0  0  0  0  0
    7.8450   -1.2760   18.6760 H   0  0  0  0  0  0  0  0  0  0  0  0
    7.4450   -1.1820   21.9480 H   0  0  0  0  0  0  0  0  0  0  0  0
    8.4990   -1.2760   20.5240 H   0  0  0  0  0  0  0  0  0  0  0  0
    8.0990   -2.7380   21.4210 H   0  0  0  0  0  0  0  0  0  0  0  0
    5.5660   -2.8100   22.3920 H   0  0  0  0  0  0  0  0  0  0  0  0
    7.3780   -4.5410   21.4930 H   0  0  0  0  0  0  0  0  0  0  0  0
    4.7050   -5.8220   22.0350 H   0  0  0  0  0  0  0  0  0  0  0  0
    6.1920   -6.7680   21.6250 H   0  0  0  0  0  0  0  0  0  0  0  0
    7.9980   -6.3700   23.0630 H   0  0  0  0  0  0  0  0  0  0  0  0
    7.6530   -6.1080   24.7480 H   0  0  0  0  0  0  0  0  0  0  0  0
    9.2680   -4.6770   24.1150 H   0  0  0  0  0  0  0  0  0  0  0  0
    8.5150   -4.1760   22.6920 H   0  0  0  0  0  0  0  0  0  0  0  0
    6.7810   -1.1670   24.5890 H   0  0  0  0  0  0  0  0  0  0  0  0
    7.6070    1.0380   23.6880 H   0  0  0  0  0  0  0  0  0  0  0  0
   10.3370   -3.0590   23.1610 H   0  0  0  0  0  0  0  0  0  0  0  0
    6.1660   -2.5790   24.6990 H   0  0  0  0  0  0  0  0  0  0  0  0
    7.0140   -2.9740   26.1630 H   0  0  0  0  0  0  0  0  0  0  0  0
    5.0490   -4.4580   26.0480 H   0  0  0  0  0  0  0  0  0  0  0  0
    6.4400   -5.4550   25.9810 H   0  0  0  0  0  0  0  0  0  0  0  0
  1  2  1  0
  2  3  2  0
  3  4  1  0
  4  5  1  0
  5  6  1  0
  6  7  1  0
  6  8  1  0
  8  9  2  0
  8 10  1  0
 10 11  1  0
 11 12  1  0
 11 13  1  0
 12 13  1  0
 13 14  1  0
 14 15  1  0
 15 16  1  0
 16 17  1  0
 17 18  2  0
 18 19  1  0
 19 20  2  0
 20 21  1  0
 21 22  3  0
 20 23  1  0
 17 24  1  0
 23 24  2  0
 16 25  1  0
 25 26  1  0
 13 27  1  1
 26 27  1  0
  4 28  2  0
  2 29  1  0
 28 29  1  0
  1 30  1  0
  1 31  1  0
  1 32  1  0
  3 33  1  0
  5 34  1  0
  5 35  1  0
  7 36  1  0
  7 37  1  0
  7 38  1  0
 10 39  1  0
 11 40  1  6
 12 41  1  0
 12 42  1  0
 14 43  1  0
 14 44  1  0
 15 45  1  0
 15 46  1  0
 18 47  1  0
 19 48  1  0
 24 49  1  0
 25 50  1  0
 25 51  1  0
 26 52  1  0
 26 53  1  0
M  END
