
     RDKit          3D

 44 47  0  0  0  0  0  0  0  0999 V2000
    3.8950    3.1300   19.5650 C   0  0  0  0  0  0  0  0  0  0  0  0
    4.7780    1.9500   19.3340 C   0  0  0  0  0  0  0  0  0  0  0  0
    4.9740    1.5790   17.9920 C   0  0  0  0  0  0  0  0  0  0  0  0
    5.7870    0.4290   17.6800 N   0  0  0  0  0  0  0  0  0  0  0  0
    6.3640   -0.2820   18.7820 C   0  0  0  0  0  0  0  0  0  0  0  0
    6.1440    0.1970   20.1290 C   0  0  0  0  0  0  0  0  0  0  0  0
    5.3670    1.2740   20.4190 C   0  0  0  0  0  0  0  0  0  0  0  0
    6.9420   -0.7330   20.9630 N   0  0  0  0  0  0  0  0  0  0  0  0
    8.1510   -0.3240   21.5200 C   0  0  0  0  0  0  0  0  0  0  0  0
    8.6810    0.7620   21.2750 O   0  0  0  0  0  0  0  0  0  0  0  0
    8.9670   -1.1530   22.4900 N   0  0  0  0  0  0  0  0  0  0  0  0
   10.4000   -0.6910   22.5860 C   0  0  0  0  0  0  0  0  0  0  0  0
   11.6110   -1.5780   22.3640 C   0  0  0  0  0  0  0  0  0  0  0  0
   12.9560   -0.8670   22.5200 C   0  0  0  0  0  0  0  0  0  0  0  0
   13.0610    0.4620   22.8300 C   0  0  0  0  0  0  0  0  0  0  0  0
   11.9090    1.1670   23.0030 C   0  0  0  0  0  0  0  0  0  0  0  0
   10.6250    0.6700   22.9030 C   0  0  0  0  0  0  0  0  0  0  0  0
    7.0000   -1.9380   20.1480 N   0  0  0  0  0  0  0  0  0  0  0  0
    6.1260   -3.0700   20.5450 C   0  0  0  0  0  0  0  0  0  0  0  0
    5.4950   -3.7920   19.7570 O   0  0  0  0  0  0  0  0  0  0  0  0
    6.0980   -3.2760   21.8850 N   0  0  0  0  0  0  0  0  0  0  0  0
    6.6320   -4.5560   22.3890 C   0  0  1  0  0  0  0  0  0  0  0  0
    6.0410   -5.1960   23.3990 C   0  0  0  0  0  0  0  0  0  0  0  0
    5.9850   -5.8110   22.0450 C   0  0  0  0  0  0  0  0  0  0  0  0
    7.1770   -1.4830   18.8240 C   0  0  0  0  0  0  0  0  0  0  0  0
    4.4400    3.9580   20.0190 H   0  0  0  0  0  0  0  0  0  0  0  0
    3.0830    2.8410   20.2410 H   0  0  0  0  0  0  0  0  0  0  0  0
    3.4760    3.4550   18.6090 H   0  0  0  0  0  0  0  0  0  0  0  0
    4.5540    2.0920   17.1430 H   0  0  0  0  0  0  0  0  0  0  0  0
    5.2040    1.6120   21.4390 H   0  0  0  0  0  0  0  0  0  0  0  0
    8.4950   -1.3230   23.3660 H   0  0  0  0  0  0  0  0  0  0  0  0
   11.5290   -2.6310   22.1160 H   0  0  0  0  0  0  0  0  0  0  0  0
   13.8770   -1.4390   22.3770 H   0  0  0  0  0  0  0  0  0  0  0  0
   14.0650    0.8640   22.9100 H   0  0  0  0  0  0  0  0  0  0  0  0
   12.0820    2.2250   23.2440 H   0  0  0  0  0  0  0  0  0  0  0  0
    9.8240    1.4270   23.0880 H   0  0  0  0  0  0  0  0  0  0  0  0
    5.2750   -2.9030   22.3410 H   0  0  0  0  0  0  0  0  0  0  0  0
    7.7240   -4.5640   22.3260 H   0  0  0  0  0  0  0  0  0  0  0  0
    5.1390   -4.8110   23.8150 H   0  0  0  0  0  0  0  0  0  0  0  0
    6.6800   -5.6670   24.1350 H   0  0  0  0  0  0  0  0  0  0  0  0
    5.0520   -5.7710   21.4970 H   0  0  0  0  0  0  0  0  0  0  0  0
    6.5890   -6.6900   21.8600 H   0  0  0  0  0  0  0  0  0  0  0  0
    8.2060   -1.2230   18.6640 H   0  0  0  0  0  0  0  0  0  0  0  0
    6.8280   -2.1650   18.0610 H   0  0  0  0  0  0  0  0  0  0  0  0
  1  2  1  0
  2  3  2  0
  3  4  1  0
  4  5  2  0
  5  6  1  0
  2  7  1  0
  6  7  2  0
  6  8  1  0
  8  9  1  0
  9 10  2  0
  9 11  1  0
 11 12  1  0
 12 13  2  0
 13 14  1  0
 14 15  2  0
 15 16  1  0
 12 17  1  0
 16 17  2  0
  8 18  1  0
 18 19  1  0
 19 20  2  0
 19 21  1  0
 21 22  1  0
 22 23  1  0
 22 24  1  0
 23 24  1  0
  5 25  1  0
 18 25  1  0
  1 26  1  0
  1 27  1  0
  1 28  1  0
  3 29  1  0
  7 30  1  0
 11 31  1  0
 13 32  1  0
 14 33  1  0
 15 34  1  0
 16 35  1  0
 17 36  1  0
 21 37  1  0
 22 38  1  1
 23 39  1  0
 23 40  1  0
 24 41  1  0
 24 42  1  0
 25 43  1  0
 25 44  1  0
M  END
