LIG
     RDKit          3D

 44 46  0  0  0  0  0  0  0  0999 V2000
    9.3350   -5.3670   26.2750 C   0  0  0  0  0  0  0  0  0  0  0  0
    9.0910   -3.9920   25.6370 C   0  0  0  0  0  0  0  0  0  0  0  0
    8.5200   -2.9160   26.2860 N   0  0  0  0  0  0  0  0  0  0  0  0
    8.4300   -1.7410   25.3910 N   0  0  0  0  0  0  0  0  0  0  0  0
    8.9500   -2.0240   24.1390 C   0  0  0  0  0  0  0  0  0  0  0  0
    9.0150   -1.0220   22.9690 C   0  0  0  0  0  0  0  0  0  0  0  0
   10.2885   -0.6340   23.2695 C   0  0  0  0  0  0  0  0  0  0  0  0
   11.2800   -1.4105   22.5750 C   0  0  0  0  0  0  0  0  0  0  0  0
   12.4710   -0.7460   22.2350 C   0  0  0  0  0  0  0  0  0  0  0  0
   13.3865   -1.3925   21.4710 C   0  0  0  0  0  0  0  0  0  0  0  0
   13.9850   -1.7380   20.5810 N   0  0  0  0  0  0  0  0  0  0  0  0
   12.7955    0.5105   22.9025 C   0  0  0  0  0  0  0  0  0  0  0  0
   11.8550    1.1765   23.6050 C   0  0  0  0  0  0  0  0  0  0  0  0
   10.6155    0.3925   24.0115 C   0  0  0  0  0  0  0  0  0  0  0  0
    9.8330    1.0540   25.2470 C   0  0  0  0  0  0  0  0  0  0  0  0
    8.4500    0.7150   24.9220 N   0  0  0  0  0  0  0  0  0  0  0  0
    7.7030    1.4680   24.0150 C   0  0  0  0  0  0  0  0  0  0  0  0
    8.1720    2.4660   23.4420 O   0  0  0  0  0  0  0  0  0  0  0  0
    6.3360    0.9640   23.8050 N   0  0  0  0  0  0  0  0  0  0  0  0
    5.6140    1.6470   22.6990 C   0  0  0  0  0  0  0  0  0  0  0  0
    4.2210    1.0320   22.4570 C   0  0  0  0  0  0  0  0  0  0  0  0
    3.4750    1.0690   23.6570 O   0  0  0  0  0  0  0  0  0  0  0  0
    4.0500    0.3480   24.7320 C   0  0  0  0  0  0  0  0  0  0  0  0
    5.4800    0.8530   25.0320 C   0  0  0  0  0  0  0  0  0  0  0  0
    9.4770   -3.5790   24.0930 S   0  0  0  0  0  0  0  0  0  0  0  0
    9.0930   -6.1446   25.5546 H   0  0  0  0  0  0  0  0  0  0  0  0
    8.6998   -5.4841   27.1501 H   0  0  0  0  0  0  0  0  0  0  0  0
   10.3793   -5.4582   26.5592 H   0  0  0  0  0  0  0  0  0  0  0  0
    8.9442   -1.5769   22.0879 H   0  0  0  0  0  0  0  0  0  0  0  0
    8.2353   -0.3552   23.1135 H   0  0  0  0  0  0  0  0  0  0  0  0
   11.1314   -2.4291   22.3558 H   0  0  0  0  0  0  0  0  0  0  0  0
   13.8173    0.8778   22.8143 H   0  0  0  0  0  0  0  0  0  0  0  0
   11.9250    2.1820   23.8904 H   0  0  0  0  0  0  0  0  0  0  0  0
   10.0277    2.0724   25.2544 H   0  0  0  0  0  0  0  0  0  0  0  0
   10.0437    0.5242   26.1164 H   0  0  0  0  0  0  0  0  0  0  0  0
    8.1771   -0.2383   25.0503 H   0  0  0  0  0  0  0  0  0  0  0  0
    6.2086    1.5891   21.7857 H   0  0  0  0  0  0  0  0  0  0  0  0
    5.5155    2.6950   23.0017 H   0  0  0  0  0  0  0  0  0  0  0  0
    3.6962    1.5997   21.7037 H   0  0  0  0  0  0  0  0  0  0  0  0
    4.3157    0.0038   22.1320 H   0  0  0  0  0  0  0  0  0  0  0  0
    4.0792   -0.7017   24.4706 H   0  0  0  0  0  0  0  0  0  0  0  0
    3.4260    0.4850   25.6065 H   0  0  0  0  0  0  0  0  0  0  0  0
    6.0026    0.1509   25.7009 H   0  0  0  0  0  0  0  0  0  0  0  0
    5.4426    1.8262   25.5419 H   0  0  0  0  0  0  0  0  0  0  0  0
  1  2  1  0
  2  3  4  0
  3  4  4  0
  4  5  4  0
  5  6  1  0
  6  7  1  0
  7  8  4  0
  8  9  4  0
  9 10  1  0
 10 11  3  0
  9 12  4  0
 12 13  4  0
 13 14  4  0
 14 15  1  0
 15 16  1  0
 16 17  1  0
 17 18  2  0
 17 19  1  0
 19 20  1  0
 20 21  1  0
 21 22  1  0
 22 23  1  0
 23 24  1  0
  5 25  4  0
 25  2  4  0
 14  7  4  0
 24 19  1  0
  1 26  1  0
  1 27  1  0
  1 28  1  0
  6 29  1  0
  6 30  1  0
  8 31  1  0
 12 32  1  0
 13 33  1  0
 15 34  1  0
 15 35  1  0
 16 36  1  0
 20 37  1  0
 20 38  1  0
 21 39  1  0
 21 40  1  0
 23 41  1  0
 23 42  1  0
 24 43  1  0
 24 44  1  0
M  END
