
     RDKit          3D

 33 34  0  0  0  0  0  0  0  0999 V2000
    6.6930   -4.8000   25.6880 C   0  0  0  0  0  0  0  0  0  0  0  0
    8.1040   -4.2760   25.6470 C   0  0  2  0  0  0  0  0  0  0  0  0
    9.0420   -5.1860   26.1740 C   0  0  0  0  0  0  0  0  0  0  0  0
    8.1790   -3.0240   26.2700 N   0  0  0  0  0  0  0  0  0  0  0  0
    8.6060   -1.9240   25.3480 N   0  0  0  0  0  0  0  0  0  0  0  0
    8.1210   -2.2690   24.0000 C   0  0  1  0  0  0  0  0  0  0  0  0
    8.5900   -1.4000   22.8400 C   0  0  0  0  0  0  0  0  0  0  0  0
   10.0110   -0.9690   22.6300 N   0  0  0  0  0  0  0  0  0  0  0  0
   10.5670   -0.0310   23.5860 C   0  0  0  0  0  0  0  0  0  0  0  0
   11.8600    0.6530   23.1350 C   0  0  0  0  0  0  0  0  0  0  0  0
   12.7480   -0.2130   22.5130 C   0  0  0  0  0  0  0  0  0  0  0  0
   12.3730   -1.5770   22.0300 C   0  0  0  0  0  0  0  0  0  0  0  0
   13.2910   -2.3340   21.4230 F   0  0  0  0  0  0  0  0  0  0  0  0
   10.9310   -2.0600   22.2450 C   0  0  0  0  0  0  0  0  0  0  0  0
    8.5780   -3.9980   23.9100 S   0  0  0  0  0  0  0  0  0  0  0  0
    6.4280   -5.3140   24.7640 H   0  0  0  0  0  0  0  0  0  0  0  0
    6.6070   -5.5140   26.5140 H   0  0  0  0  0  0  0  0  0  0  0  0
    6.0070   -3.9650   25.8460 H   0  0  0  0  0  0  0  0  0  0  0  0
   10.0600   -5.1990   25.8070 H   0  0  0  0  0  0  0  0  0  0  0  0
    8.6880   -6.2150   26.0550 H   0  0  0  0  0  0  0  0  0  0  0  0
    9.1040   -5.0220   27.2560 H   0  0  0  0  0  0  0  0  0  0  0  0
    8.7800   -3.0710   27.0900 H   0  0  0  0  0  0  0  0  0  0  0  0
    9.6280   -1.8890   25.3070 H   0  0  0  0  0  0  0  0  0  0  0  0
    7.0260   -2.2170   24.0120 H   0  0  0  0  0  0  0  0  0  0  0  0
    8.0420   -0.4530   22.8800 H   0  0  0  0  0  0  0  0  0  0  0  0
    8.2440   -1.8700   21.9080 H   0  0  0  0  0  0  0  0  0  0  0  0
    9.8560    0.7800   23.7470 H   0  0  0  0  0  0  0  0  0  0  0  0
   10.7050   -0.5290   24.5390 H   0  0  0  0  0  0  0  0  0  0  0  0
   11.6020    1.4670   22.4500 H   0  0  0  0  0  0  0  0  0  0  0  0
   12.3760    1.1080   23.9730 H   0  0  0  0  0  0  0  0  0  0  0  0
   13.7630    0.1330   22.3690 H   0  0  0  0  0  0  0  0  0  0  0  0
   10.5980   -2.4090   21.2650 H   0  0  0  0  0  0  0  0  0  0  0  0
   10.7670   -2.9010   22.9030 H   0  0  0  0  0  0  0  0  0  0  0  0
  2  1  1  6
  2  3  1  0
  2  4  1  0
  4  5  1  0
  5  6  1  0
  6  7  1  0
  7  8  1  0
  8  9  1  0
  9 10  1  0
 10 11  1  0
 11 12  2  0
 12 13  1  0
  8 14  1  0
 12 14  1  0
  2 15  1  0
  6 15  1  0
  1 16  1  0
  1 17  1  0
  1 18  1  0
  3 19  1  0
  3 20  1  0
  3 21  1  0
  4 22  1  0
  5 23  1  0
  6 24  1  1
  7 25  1  0
  7 26  1  0
  9 27  1  0
  9 28  1  0
 10 29  1  0
 10 30  1  0
 11 31  1  0
 14 32  1  0
 14 33  1  0
M  END
