
     RDKit          3D

 44 46  0  0  0  0  0  0  0  0999 V2000
    8.8510   -5.5660   26.3600 C   0  0  0  0  0  0  0  0  0  0  0  0
    8.5910   -4.1810   25.8210 C   0  0  0  0  0  0  0  0  0  0  0  0
    8.0970   -3.1340   26.5620 N   0  0  0  0  0  0  0  0  0  0  0  0
    8.0290   -1.9420   25.6980 N   0  0  0  0  0  0  0  0  0  0  0  0
    8.4650   -2.1870   24.3800 C   0  0  0  0  0  0  0  0  0  0  0  0
    8.5570   -1.1940   23.2450 C   0  0  0  0  0  0  0  0  0  0  0  0
   10.0010   -0.8640   23.0980 C   0  0  0  0  0  0  0  0  0  0  0  0
   10.8760   -1.5550   22.3080 C   0  0  0  0  0  0  0  0  0  0  0  0
   12.3240   -1.1460   22.2220 C   0  0  0  0  0  0  0  0  0  0  0  0
   13.1330   -1.9090   21.4130 C   0  0  0  0  0  0  0  0  0  0  0  0
   13.8750   -1.3470   20.4840 N   0  0  0  0  0  0  0  0  0  0  0  0
   12.8870    0.0610   22.9870 C   0  0  0  0  0  0  0  0  0  0  0  0
   11.8450    0.7500   23.8330 C   0  0  0  0  0  0  0  0  0  0  0  0
   10.5320    0.3640   23.9260 C   0  0  0  0  0  0  0  0  0  0  0  0
    9.6400    1.0370   24.7570 C   0  0  0  0  0  0  0  0  0  0  0  0
    8.3290    0.7160   24.5870 N   0  0  0  0  0  0  0  0  0  0  0  0
    7.5480    1.7210   23.9070 C   0  0  0  0  0  0  0  0  0  0  0  0
    8.0380    2.7640   23.4940 O   0  0  0  0  0  0  0  0  0  0  0  0
    6.2580    1.4150   23.7650 N   0  0  0  0  0  0  0  0  0  0  0  0
    5.6210    2.1070   22.7970 C   0  0  0  0  0  0  0  0  0  0  0  0
    4.3770    1.5470   22.5240 C   0  0  0  0  0  0  0  0  0  0  0  0
    3.5920    1.3770   23.7160 O   0  0  0  0  0  0  0  0  0  0  0  0
    4.2800    0.5190   24.6370 C   0  0  0  0  0  0  0  0  0  0  0  0
    5.4740    1.1460   24.9730 C   0  0  0  0  0  0  0  0  0  0  0  0
    8.9470   -3.8120   24.0980 S   0  0  0  0  0  0  0  0  0  0  0  0
    7.9590   -6.1920   26.3100 H   0  0  0  0  0  0  0  0  0  0  0  0
    9.1520   -5.4930   27.4100 H   0  0  0  0  0  0  0  0  0  0  0  0
    9.6530   -6.0360   25.7860 H   0  0  0  0  0  0  0  0  0  0  0  0
    8.2180   -1.7160   22.3400 H   0  0  0  0  0  0  0  0  0  0  0  0
    7.9740   -0.2830   23.2580 H   0  0  0  0  0  0  0  0  0  0  0  0
   10.5270   -2.4220   21.7290 H   0  0  0  0  0  0  0  0  0  0  0  0
   13.9190    0.3830   22.9330 H   0  0  0  0  0  0  0  0  0  0  0  0
   12.1480    1.6090   24.4150 H   0  0  0  0  0  0  0  0  0  0  0  0
    9.7950    2.1190   24.6970 H   0  0  0  0  0  0  0  0  0  0  0  0
    9.9470    0.7210   25.7560 H   0  0  0  0  0  0  0  0  0  0  0  0
    8.1520   -0.2170   24.2550 H   0  0  0  0  0  0  0  0  0  0  0  0
    6.2450    1.9720   21.9070 H   0  0  0  0  0  0  0  0  0  0  0  0
    5.6660    3.1640   23.0490 H   0  0  0  0  0  0  0  0  0  0  0  0
    3.8060    2.1770   21.8350 H   0  0  0  0  0  0  0  0  0  0  0  0
    4.5160    0.5730   22.0480 H   0  0  0  0  0  0  0  0  0  0  0  0
    4.3480   -0.4410   24.1340 H   0  0  0  0  0  0  0  0  0  0  0  0
    3.5720    0.3510   25.4440 H   0  0  0  0  0  0  0  0  0  0  0  0
    6.1190    0.6590   25.6940 H   0  0  0  0  0  0  0  0  0  0  0  0
    5.2260    2.1190   25.3800 H   0  0  0  0  0  0  0  0  0  0  0  0
  1  2  1  0
  2  3  2  0
  3  4  1  0
  4  5  2  0
  5  6  1  0
  6  7  1  0
  7  8  2  0
  8  9  1  0
  9 10  1  0
 10 11  3  0
  9 12  2  0
 12 13  1  0
  7 14  1  0
 13 14  2  0
 14 15  1  0
 15 16  1  0
 16 17  1  0
 17 18  2  0
 17 19  1  0
 19 20  1  0
 20 21  1  0
 21 22  1  0
 22 23  1  0
 19 24  1  0
 23 24  1  0
  2 25  1  0
  5 25  1  0
  1 26  1  0
  1 27  1  0
  1 28  1  0
  6 29  1  0
  6 30  1  0
  8 31  1  0
 12 32  1  0
 13 33  1  0
 15 34  1  0
 15 35  1  0
 16 36  1  0
 20 37  1  0
 20 38  1  0
 21 39  1  0
 21 40  1  0
 23 41  1  0
 23 42  1  0
 24 43  1  0
 24 44  1  0
M  END
