
     RDKit          3D

 39 41  0  0  0  0  0  0  0  0999 V2000
   13.1490   -1.0970   24.8980 C   0  0  0  0  0  0  0  0  0  0  0  0
   13.4770   -0.1960   23.8240 O   0  0  0  0  0  0  0  0  0  0  0  0
   12.8020   -0.8650   22.9290 C   0  0  0  0  0  0  0  0  0  0  0  0
   11.7660   -1.2740   22.0940 C   0  0  0  0  0  0  0  0  0  0  0  0
   12.0770   -2.3510   21.3650 F   0  0  0  0  0  0  0  0  0  0  0  0
   10.3470   -0.7710   21.9720 C   0  0  0  0  0  0  0  0  0  0  0  0
    9.8340   -0.4630   23.1530 N   0  0  0  0  0  0  0  0  0  0  0  0
    8.5230   -0.6690   23.3230 C   0  0  0  0  0  0  0  0  0  0  0  0
    8.2420   -1.8670   23.9050 C   0  0  0  0  0  0  0  0  0  0  0  0
    7.2490   -1.9070   24.8350 N   0  0  0  0  0  0  0  0  0  0  0  0
    7.1020   -3.2900   25.3500 N   0  0  0  0  0  0  0  0  0  0  0  0
    8.0490   -4.2080   24.7440 C   0  0  0  0  0  0  0  0  0  0  0  0
    8.1530   -5.5660   25.0790 C   0  0  0  0  0  0  0  0  0  0  0  0
    9.0170   -3.3990   23.6090 S   0  0  0  0  0  0  0  0  0  0  0  0
   10.4780    0.6860   23.2580 C   0  0  0  0  0  0  0  0  0  0  0  0
    9.9580    2.1240   23.4540 C   0  0  0  0  0  0  0  0  0  0  0  0
   10.7700    3.2470   23.4640 C   0  0  0  0  0  0  0  0  0  0  0  0
   10.1690    4.9280   23.6840 S   0  0  1  0  0  0  0  0  0  0  0  0
    8.9040    4.9920   22.5760 N   0  0  0  0  0  0  0  0  0  0  0  0
    9.4660    5.1330   24.9440 O   0  0  0  0  0  0  0  0  0  0  0  0
   11.1790    5.8650   23.2390 O   0  0  0  0  0  0  0  0  0  0  0  0
   12.1250    2.9770   23.2700 C   0  0  0  0  0  0  0  0  0  0  0  0
   12.6290    1.6620   23.1170 C   0  0  0  0  0  0  0  0  0  0  0  0
   11.8390    0.4940   23.1210 C   0  0  0  0  0  0  0  0  0  0  0  0
   13.1540   -0.5400   25.8340 H   0  0  0  0  0  0  0  0  0  0  0  0
   12.1430   -1.5080   24.7690 H   0  0  0  0  0  0  0  0  0  0  0  0
   13.8650   -1.9210   24.9640 H   0  0  0  0  0  0  0  0  0  0  0  0
    9.7780   -1.6210   21.5790 H   0  0  0  0  0  0  0  0  0  0  0  0
   10.1260    0.0040   21.2630 H   0  0  0  0  0  0  0  0  0  0  0  0
    8.0340   -0.4510   22.3790 H   0  0  0  0  0  0  0  0  0  0  0  0
    8.2080    0.2090   23.8810 H   0  0  0  0  0  0  0  0  0  0  0  0
    7.9550   -6.1490   24.1760 H   0  0  0  0  0  0  0  0  0  0  0  0
    9.1660   -5.7630   25.4240 H   0  0  0  0  0  0  0  0  0  0  0  0
    7.4660   -5.8820   25.8630 H   0  0  0  0  0  0  0  0  0  0  0  0
    8.8860    2.2920   23.5790 H   0  0  0  0  0  0  0  0  0  0  0  0
    8.3210    4.1840   22.7160 H   0  0  0  0  0  0  0  0  0  0  0  0
    9.2250    5.0530   21.6170 H   0  0  0  0  0  0  0  0  0  0  0  0
   12.8260    3.8080   23.2460 H   0  0  0  0  0  0  0  0  0  0  0  0
   13.6980    1.5410   22.9850 H   0  0  0  0  0  0  0  0  0  0  0  0
  1  2  1  0
  2  3  1  0
  3  4  2  0
  4  5  1  0
  4  6  1  0
  6  7  1  0
  7  8  1  0
  8  9  1  0
  9 10  2  0
 10 11  1  0
 11 12  2  0
 12 13  1  0
  9 14  1  0
 12 14  1  0
  7 15  1  0
 15 16  1  0
 16 17  2  0
 17 18  1  0
 18 19  1  6
 18 20  2  0
 18 21  2  0
 17 22  1  0
 22 23  2  0
  3 24  1  0
 15 24  2  0
 23 24  1  0
  1 25  1  0
  1 26  1  0
  1 27  1  0
  6 28  1  0
  6 29  1  0
  8 30  1  0
  8 31  1  0
 13 32  1  0
 13 33  1  0
 13 34  1  0
 16 35  1  0
 19 36  1  0
 19 37  1  0
 22 38  1  0
 23 39  1  0
M  END
