LIG
     RDKit          3D

 38 39  0  0  0  0  0  0  0  0999 V2000
   21.2820   -7.5570    5.4940 O   0  0  0  0  0  0  0  0  0  0  0  0
   22.2085   -7.6245    6.0505 C   0  0  0  0  0  0  0  0  0  0  0  0
   21.9955   -8.4915    6.9100 C   0  0  0  0  0  0  0  0  0  0  0  0
   22.3920   -9.6730    5.7370 C   0  0  0  0  0  0  0  0  0  0  0  0
   23.4140   -9.1470    4.9905 C   0  0  0  0  0  0  0  0  0  0  0  0
   24.2440  -10.7970    3.9930 S   0  0  0  0  0  0  0  0  0  0  0  0
   25.9960  -10.3360    4.1600 C   0  0  0  0  0  0  0  0  0  0  0  0
   26.3490  -10.2540    5.6510 C   0  0  0  0  0  0  0  0  0  0  0  0
   27.2650  -11.0650    6.0370 N   0  0  0  0  0  0  0  0  0  0  0  0
   27.8610  -10.7420    7.2600 C   0  0  0  0  0  0  0  0  0  0  0  0
   27.6580  -11.7280    8.3980 C   0  0  0  0  0  0  0  0  0  0  0  0
   27.8520  -13.0140    7.9640 O   0  0  0  0  0  0  0  0  0  0  0  0
   26.9780  -13.3480    6.9410 C   0  0  0  0  0  0  0  0  0  0  0  0
   27.0730  -12.4170    5.7370 C   0  0  0  0  0  0  0  0  0  0  0  0
   24.0855   -7.9405    4.7800 C   0  0  0  0  0  0  0  0  0  0  0  0
   24.7060   -7.2450    3.9220 O   0  0  0  0  0  0  0  0  0  0  0  0
   23.3080   -6.9470    5.4970 C   0  0  0  0  0  0  0  0  0  0  0  0
   21.0156   -8.7344    7.1723 H   0  0  0  0  0  0  0  0  0  0  0  0
   22.7317   -8.6718    7.6370 H   0  0  0  0  0  0  0  0  0  0  0  0
   21.4418   -9.8981    5.2793 H   0  0  0  0  0  0  0  0  0  0  0  0
   22.6693  -10.5110    6.3642 H   0  0  0  0  0  0  0  0  0  0  0  0
   24.3719   -9.5349    6.0920 H   0  0  0  0  0  0  0  0  0  0  0  0
   26.1387   -9.3634    3.7144 H   0  0  0  0  0  0  0  0  0  0  0  0
   26.6082  -11.0641    3.6542 H   0  0  0  0  0  0  0  0  0  0  0  0
   25.3730  -10.4040    6.1780 H   0  0  0  0  0  0  0  0  0  0  0  0
   26.5796   -9.1740    5.8379 H   0  0  0  0  0  0  0  0  0  0  0  0
   28.9759  -10.5985    7.1340 H   0  0  0  0  0  0  0  0  0  0  0  0
   27.5052   -9.7347    7.6263 H   0  0  0  0  0  0  0  0  0  0  0  0
   28.3817  -11.5098    9.1995 H   0  0  0  0  0  0  0  0  0  0  0  0
   26.6525  -11.6131    8.8401 H   0  0  0  0  0  0  0  0  0  0  0  0
   25.9352  -13.3795    7.3287 H   0  0  0  0  0  0  0  0  0  0  0  0
   27.2047  -14.3847    6.6167 H   0  0  0  0  0  0  0  0  0  0  0  0
   27.8997  -12.8017    5.0774 H   0  0  0  0  0  0  0  0  0  0  0  0
   26.1397  -12.5799    5.1347 H   0  0  0  0  0  0  0  0  0  0  0  0
   22.8927   -7.6189    3.7505 H   0  0  0  0  0  0  0  0  0  0  0  0
   25.6794   -7.1304    4.1283 H   0  0  0  0  0  0  0  0  0  0  0  0
   23.9043   -6.4549    6.2834 H   0  0  0  0  0  0  0  0  0  0  0  0
   22.9767   -6.1494    4.8112 H   0  0  0  0  0  0  0  0  0  0  0  0
  1  2  2  0
  2  3  1  0
  3  4  1  0
  4  5  1  0
  5  6  1  0
  6  7  1  0
  7  8  1  0
  8  9  1  0
  9 10  1  0
 10 11  1  0
 11 12  1  0
 12 13  1  0
 13 14  1  0
  5 15  1  0
 15 16  1  0
 15 17  1  0
 17  2  1  0
 14  9  1  0
  3 18  1  0
  3 19  1  0
  4 20  1  0
  4 21  1  0
  5 22  1  0
  7 23  1  0
  7 24  1  0
  8 25  1  0
  8 26  1  0
 10 27  1  0
 10 28  1  0
 11 29  1  0
 11 30  1  0
 13 31  1  0
 13 32  1  0
 14 33  1  0
 14 34  1  0
 15 35  1  0
 16 36  1  0
 17 37  1  0
 17 38  1  0
M  END
