
     RDKit          3D

 35 37  0  0  0  0  0  0  0  0999 V2000
    8.8980   -5.2720   26.0190 C   0  0  0  0  0  0  0  0  0  0  0  0
    8.7110   -3.9080   25.3910 C   0  0  0  0  0  0  0  0  0  0  0  0
    8.1530   -2.8110   26.0190 N   0  0  0  0  0  0  0  0  0  0  0  0
    8.1800   -1.6580   25.0810 N   0  0  0  0  0  0  0  0  0  0  0  0
    8.7600   -2.0040   23.8330 C   0  0  0  0  0  0  0  0  0  0  0  0
    8.9550   -1.0620   22.8140 N   0  0  0  0  0  0  0  0  0  0  0  0
    8.1870   -0.3240   21.8670 C   0  0  0  0  0  0  0  0  0  0  0  0
    8.5910    0.9760   21.4900 O   0  0  0  0  0  0  0  0  0  0  0  0
    6.9790   -0.9090   21.2000 N   0  0  0  0  0  0  0  0  0  0  0  0
    6.3700   -0.2020   20.1340 C   0  0  0  0  0  0  0  0  0  0  0  0
    5.1870    0.4690   20.4080 C   0  0  0  0  0  0  0  0  0  0  0  0
    4.5760    1.2340   19.2370 C   0  0  0  0  0  0  0  0  0  0  0  0
    5.2210    1.2200   17.9890 C   0  0  0  0  0  0  0  0  0  0  0  0
    6.3730    0.5340   17.8150 N   0  0  0  0  0  0  0  0  0  0  0  0
    6.9030   -0.1400   18.8520 C   0  0  0  0  0  0  0  0  0  0  0  0
   10.3240   -0.6110   22.8630 C   0  0  0  0  0  0  0  0  0  0  0  0
   10.7150    0.5310   23.5390 C   0  0  0  0  0  0  0  0  0  0  0  0
   12.0180    0.9230   23.5390 C   0  0  0  0  0  0  0  0  0  0  0  0
   12.9860    0.2350   22.8980 C   0  0  0  0  0  0  0  0  0  0  0  0
   12.7350   -0.9200   22.1950 C   0  0  0  0  0  0  0  0  0  0  0  0
   13.6800   -1.5860   21.5660 F   0  0  0  0  0  0  0  0  0  0  0  0
   11.4290   -1.4070   22.1330 C   0  0  0  0  0  0  0  0  0  0  0  0
    9.2540   -3.6480   23.6940 S   0  0  0  0  0  0  0  0  0  0  0  0
    9.0140   -5.2060   27.1070 H   0  0  0  0  0  0  0  0  0  0  0  0
    9.8030   -5.7360   25.6110 H   0  0  0  0  0  0  0  0  0  0  0  0
    8.0290   -5.8910   25.7930 H   0  0  0  0  0  0  0  0  0  0  0  0
    6.3690   -1.4530   21.7930 H   0  0  0  0  0  0  0  0  0  0  0  0
    4.7190    0.4600   21.3880 H   0  0  0  0  0  0  0  0  0  0  0  0
    3.6480    1.7610   19.4540 H   0  0  0  0  0  0  0  0  0  0  0  0
    4.8210    1.7530   17.1360 H   0  0  0  0  0  0  0  0  0  0  0  0
    7.8330   -0.6570   18.5880 H   0  0  0  0  0  0  0  0  0  0  0  0
    9.9020    1.0550   24.0400 H   0  0  0  0  0  0  0  0  0  0  0  0
   12.2230    1.8360   24.0930 H   0  0  0  0  0  0  0  0  0  0  0  0
   14.0360    0.5830   22.9110 H   0  0  0  0  0  0  0  0  0  0  0  0
   11.2310   -2.3190   21.5730 H   0  0  0  0  0  0  0  0  0  0  0  0
  1  2  1  0
  2  3  2  0
  3  4  1  0
  4  5  2  0
  5  6  1  0
  6  7  1  0
  7  8  2  0
  7  9  1  0
  9 10  1  0
 10 11  2  0
 11 12  1  0
 12 13  2  0
 13 14  1  0
 10 15  1  0
 14 15  2  0
  6 16  1  0
 16 17  2  0
 17 18  1  0
 18 19  2  0
 19 20  1  0
 20 21  1  0
 16 22  1  0
 20 22  2  0
  2 23  1  0
  5 23  1  0
  1 24  1  0
  1 25  1  0
  1 26  1  0
  9 27  1  0
 11 28  1  0
 12 29  1  0
 13 30  1  0
 15 31  1  0
 17 32  1  0
 18 33  1  0
 19 34  1  0
 22 35  1  0
M  END
