
     RDKit          3D

 37 39  0  0  0  0  0  0  0  0999 V2000
    9.0930   -5.6970   27.2970 O   0  0  0  0  0  0  0  0  0  0  0  0
    9.3360   -4.4530   26.6930 C   0  0  1  0  0  0  0  0  0  0  0  0
   10.6210   -4.4640   25.9360 C   0  0  0  0  0  0  0  0  0  0  0  0
   10.7250   -3.4550   24.9800 C   0  0  0  0  0  0  0  0  0  0  0  0
    9.2210   -3.6900   24.1580 S   0  0  2  0  0  0  0  0  0  0  0  0
    8.3150   -2.2420   23.8420 C   0  0  2  0  0  0  0  0  0  0  0  0
    8.9790   -1.2750   22.9220 C   0  0  0  0  0  0  0  0  0  0  0  0
   10.3820   -1.0810   23.2350 N   0  0  0  0  0  0  0  0  0  0  0  0
   10.6650    0.3600   23.2720 C   0  0  0  0  0  0  0  0  0  0  0  0
   12.0360    0.6790   23.7990 C   0  0  0  0  0  0  0  0  0  0  0  0
   12.9430    0.1100   22.9160 C   0  0  0  0  0  0  0  0  0  0  0  0
   12.6150   -1.1430   22.1590 C   0  0  0  0  0  0  0  0  0  0  0  0
   13.4930   -1.6860   21.3030 F   0  0  0  0  0  0  0  0  0  0  0  0
   11.2360   -1.7770   22.3830 C   0  0  0  0  0  0  0  0  0  0  0  0
    8.0230   -1.7460   25.1830 N   0  0  0  0  0  0  0  0  0  0  0  0
    7.5620   -2.8760   25.9960 N   0  0  0  0  0  0  0  0  0  0  0  0
    8.2720   -4.0670   25.6240 C   0  0  2  0  0  0  0  0  0  0  0  0
    8.1380   -5.8710   27.2700 H   0  0  0  0  0  0  0  0  0  0  0  0
    9.3900   -3.6980   27.4660 H   0  0  0  0  0  0  0  0  0  0  0  0
   10.7360   -5.4330   25.4340 H   0  0  0  0  0  0  0  0  0  0  0  0
   11.4580   -4.3980   26.6320 H   0  0  0  0  0  0  0  0  0  0  0  0
   11.5730   -3.5540   24.2980 H   0  0  0  0  0  0  0  0  0  0  0  0
   10.7520   -2.4730   25.4660 H   0  0  0  0  0  0  0  0  0  0  0  0
    9.1650   -4.6520   23.2070 H   0  0  0  0  0  0  0  0  0  0  0  0
    7.3880   -2.5760   23.3570 H   0  0  0  0  0  0  0  0  0  0  0  0
    8.8420   -1.6110   21.8840 H   0  0  0  0  0  0  0  0  0  0  0  0
    8.5000   -0.2910   22.9780 H   0  0  0  0  0  0  0  0  0  0  0  0
    9.8940    0.8620   23.8600 H   0  0  0  0  0  0  0  0  0  0  0  0
   10.6390    0.7330   22.2470 H   0  0  0  0  0  0  0  0  0  0  0  0
   12.2760    0.3280   24.8090 H   0  0  0  0  0  0  0  0  0  0  0  0
   12.1670    1.7660   23.7920 H   0  0  0  0  0  0  0  0  0  0  0  0
   13.9070    0.5920   22.7720 H   0  0  0  0  0  0  0  0  0  0  0  0
   11.2220   -2.8170   22.6920 H   0  0  0  0  0  0  0  0  0  0  0  0
   10.7670   -1.7810   21.3920 H   0  0  0  0  0  0  0  0  0  0  0  0
    8.8110   -1.2370   25.5890 H   0  0  0  0  0  0  0  0  0  0  0  0
    7.6480   -2.7150   27.0000 H   0  0  0  0  0  0  0  0  0  0  0  0
    7.5800   -4.8900   25.4000 H   0  0  0  0  0  0  0  0  0  0  0  0
  1  2  1  0
  2  3  1  0
  3  4  1  0
  4  5  1  0
  5  6  1  0
  6  7  1  0
  7  8  1  0
  8  9  1  0
  9 10  1  0
 10 11  1  0
 11 12  2  0
 12 13  1  0
  8 14  1  0
 12 14  1  0
  6 15  1  0
 15 16  1  0
  2 17  1  0
  5 17  1  0
 16 17  1  0
  1 18  1  0
  2 19  1  1
  3 20  1  0
  3 21  1  0
  4 22  1  0
  4 23  1  0
  5 24  1  6
  6 25  1  6
  7 26  1  0
  7 27  1  0
  9 28  1  0
  9 29  1  0
 10 30  1  0
 10 31  1  0
 11 32  1  0
 14 33  1  0
 14 34  1  0
 15 35  1  0
 16 36  1  0
 17 37  1  6
M  END
