LIG
     RDKit          3D

 53 56  0  0  0  0  0  0  0  0999 V2000
    3.8620    2.0560   19.5360 C   0  0  0  0  0  0  0  0  0  0  0  0
    4.9620    1.2370   18.8590 C   0  0  0  0  0  0  0  0  0  0  0  0
    5.4660    0.0450   19.3030 C   0  0  0  0  0  0  0  0  0  0  0  0
    6.4430   -0.3560   18.3950 C   0  0  0  0  0  0  0  0  0  0  0  0
    7.2860   -1.6460   18.4960 C   0  0  0  0  0  0  0  0  0  0  0  0
    7.3620   -2.0310   19.9170 N   0  0  0  0  0  0  0  0  0  0  0  0
    8.3210   -1.3510   20.7970 C   0  0  0  0  0  0  0  0  0  0  0  0
    6.4780   -3.0650   20.4600 C   0  0  0  0  0  0  0  0  0  0  0  0
    5.7050   -3.6090   19.7340 O   0  0  0  0  0  0  0  0  0  0  0  0
    6.5520   -3.4250   21.8840 N   0  0  0  0  0  0  0  0  0  0  0  0
    5.6750   -4.4640   22.4420 C   0  0  0  0  0  0  0  0  0  0  0  0
    5.9460   -5.8890   21.9520 C   0  0  0  0  0  0  0  0  0  0  0  0
    6.9045   -5.5290   23.7040 C   0  0  0  0  0  0  0  0  0  0  0  0
    8.9080   -5.8040   23.6240 C   0  0  0  0  0  0  0  0  0  0  0  0
    9.8940   -5.2910   24.6800 C   0  0  0  0  0  0  0  0  0  0  0  0
    9.5290   -3.9700   25.2640 N   0  0  0  0  0  0  0  0  0  0  0  0
    9.4490   -2.7910   24.4310 C   0  0  0  0  0  0  0  0  0  0  0  0
    8.8070   -1.5850   24.7810 C   0  0  0  0  0  0  0  0  0  0  0  0
    8.8780   -0.4790   23.9400 C   0  0  0  0  0  0  0  0  0  0  0  0
    9.5840   -0.5840   22.7540 C   0  0  0  0  0  0  0  0  0  0  0  0
    9.7510    0.5640   21.9590 C   0  0  0  0  0  0  0  0  0  0  0  0
    9.8900    1.5270   21.3460 N   0  0  0  0  0  0  0  0  0  0  0  0
   10.2010   -1.7280   22.3370 N   0  0  0  0  0  0  0  0  0  0  0  0
   10.1230   -2.7850   23.1640 C   0  0  0  0  0  0  0  0  0  0  0  0
    8.7010   -4.0730   26.4970 C   0  0  0  0  0  0  0  0  0  0  0  0
    7.2860   -4.6680   26.2770 C   0  0  0  0  0  0  0  0  0  0  0  0
    7.3000   -5.8000   25.4420 O   0  0  0  0  0  0  0  0  0  0  0  0
    6.5230    0.5870   17.4450 N   0  0  0  0  0  0  0  0  0  0  0  0
    5.6020    1.5440   17.7420 O   0  0  0  0  0  0  0  0  0  0  0  0
    3.1539    2.3953   18.7867 H   0  0  0  0  0  0  0  0  0  0  0  0
    3.3514    1.4337   20.2675 H   0  0  0  0  0  0  0  0  0  0  0  0
    4.3015    2.9181   20.0317 H   0  0  0  0  0  0  0  0  0  0  0  0
    5.1459   -0.4823   20.2201 H   0  0  0  0  0  0  0  0  0  0  0  0
    6.8148   -2.4359   17.9272 H   0  0  0  0  0  0  0  0  0  0  0  0
    8.2776   -1.4681   18.0995 H   0  0  0  0  0  0  0  0  0  0  0  0
    8.1085   -1.5460   21.8509 H   0  0  0  0  0  0  0  0  0  0  0  0
    7.7750   -0.6660   21.4490 H   0  0  0  0  0  0  0  0  0  0  0  0
    8.8334   -2.1091   21.3938 H   0  0  0  0  0  0  0  0  0  0  0  0
    6.8337   -2.6904   22.4819 H   0  0  0  0  0  0  0  0  0  0  0  0
    7.5115   -4.8072   21.5164 H   0  0  0  0  0  0  0  0  0  0  0  0
    6.6792   -6.0290   21.2297 H   0  0  0  0  0  0  0  0  0  0  0  0
    5.2483   -6.6374   22.1648 H   0  0  0  0  0  0  0  0  0  0  0  0
    9.0498   -5.4182   22.5843 H   0  0  0  0  0  0  0  0  0  0  0  0
    8.8837   -6.9115   23.4973 H   0  0  0  0  0  0  0  0  0  0  0  0
   10.0344   -6.0372   25.4931 H   0  0  0  0  0  0  0  0  0  0  0  0
   10.8864   -5.2330   24.1847 H   0  0  0  0  0  0  0  0  0  0  0  0
    8.2731   -1.5157   25.7226 H   0  0  0  0  0  0  0  0  0  0  0  0
    8.3872    0.4544   24.2223 H   0  0  0  0  0  0  0  0  0  0  0  0
   10.6031   -3.6799   22.7990 H   0  0  0  0  0  0  0  0  0  0  0  0
    9.2333   -4.6806   27.2521 H   0  0  0  0  0  0  0  0  0  0  0  0
    8.5596   -3.0628   26.9211 H   0  0  0  0  0  0  0  0  0  0  0  0
    6.5794   -3.8923   25.9101 H   0  0  0  0  0  0  0  0  0  0  0  0
    6.8904   -4.9921   27.2585 H   0  0  0  0  0  0  0  0  0  0  0  0
  1  2  1  0
  2  3  4  0
  3  4  4  0
  4  5  1  0
  5  6  1  0
  6  7  1  0
  6  8  1  0
  8  9  2  0
  8 10  1  0
 10 11  1  0
 11 12  1  0
 12 13  1  0
 13 14  1  0
 14 15  1  0
 15 16  1  0
 16 17  1  0
 17 18  4  0
 18 19  4  0
 19 20  4  0
 20 21  1  0
 21 22  3  0
 20 23  4  0
 23 24  4  0
 16 25  1  0
 25 26  1  0
 26 27  1  0
  4 28  4  0
 28 29  4  0
 29  2  4  0
 13 11  1  0
 24 17  4  0
 27 13  1  0
  1 30  1  0
  1 31  1  0
  1 32  1  0
  3 33  1  0
  5 34  1  0
  5 35  1  0
  7 36  1  0
  7 37  1  0
  7 38  1  0
 10 39  1  0
 11 40  1  0
 12 41  1  0
 12 42  1  0
 14 43  1  0
 14 44  1  0
 15 45  1  0
 15 46  1  0
 18 47  1  0
 19 48  1  0
 24 49  1  0
 25 50  1  0
 25 51  1  0
 26 52  1  0
 26 53  1  0
M  END
