LIG
     RDKit          3D

 32 34  0  0  0  0  0  0  0  0999 V2000
    2.0580    0.6400   23.7610 O   0  0  0  0  0  0  0  0  0  0  0  0
    2.1860    1.8200   23.8150 C   0  0  0  0  0  0  0  0  0  0  0  0
    3.3230    2.4740   23.1750 N   0  0  0  0  0  0  0  0  0  0  0  0
    4.3320    1.7170   22.4340 C   0  0  0  0  0  0  0  0  0  0  0  0
    3.8370    1.6420   20.9890 C   0  0  0  0  0  0  0  0  0  0  0  0
    4.2740    1.6420   19.7390 C   0  0  0  0  0  0  0  0  0  0  0  0
    3.3390    3.0265   19.1970 C   0  0  0  0  0  0  0  0  0  0  0  0
    3.4037    3.5244   17.8639 C   0  0  0  0  0  0  0  0  0  0  0  0
    3.6893    3.7043   16.6316 C   0  0  0  0  0  0  0  0  0  0  0  0
    4.4194    2.6853   16.8794 N   0  0  0  0  0  0  0  0  0  0  0  0
    5.0125    1.6574   17.5434 C   0  0  0  0  0  0  0  0  0  0  0  0
    4.7005    1.4720   18.8990 C   0  0  0  0  0  0  0  0  0  0  0  0
    1.1280    2.6340   24.5580 C   0  0  0  0  0  0  0  0  0  0  0  0
   -0.1860    2.1670   24.5890 C   0  0  0  0  0  0  0  0  0  0  0  0
   -1.1770    2.8770   25.2530 C   0  0  0  0  0  0  0  0  0  0  0  0
   -0.8610    4.0710   25.8830 C   0  0  0  0  0  0  0  0  0  0  0  0
    0.4450    4.5400   25.8480 C   0  0  0  0  0  0  0  0  0  0  0  0
    1.4450    3.8310   25.1930 C   0  0  0  0  0  0  0  0  0  0  0  0
    2.7270    4.3200   25.1830 F   0  0  0  0  0  0  0  0  0  0  0  0
    3.3645    3.4716   23.2064 H   0  0  0  0  0  0  0  0  0  0  0  0
    5.2511    2.2648   22.5019 H   0  0  0  0  0  0  0  0  0  0  0  0
    4.4208    0.7431   22.8715 H   0  0  0  0  0  0  0  0  0  0  0  0
    2.9771    0.7110   21.0632 H   0  0  0  0  0  0  0  0  0  0  0  0
    2.8646    2.4535   21.0410 H   0  0  0  0  0  0  0  0  0  0  0  0
    2.6602    3.5777   19.8430 H   0  0  0  0  0  0  0  0  0  0  0  0
    3.4723    4.3352   15.7995 H   0  0  0  0  0  0  0  0  0  0  0  0
    5.6725    1.1077   16.8782 H   0  0  0  0  0  0  0  0  0  0  0  0
    5.8558    1.6762   18.5532 H   0  0  0  0  0  0  0  0  0  0  0  0
   -0.4459    1.2308   24.0870 H   0  0  0  0  0  0  0  0  0  0  0  0
   -2.1962    2.4970   25.2780 H   0  0  0  0  0  0  0  0  0  0  0  0
   -1.6322    4.6374   26.4015 H   0  0  0  0  0  0  0  0  0  0  0  0
    0.7003    5.4844   26.3421 H   0  0  0  0  0  0  0  0  0  0  0  0
  1  2  2  0
  2  3  1  0
  3  4  1  0
  4  5  1  0
  5  6  1  0
  6  7  2  0
  7  8  1  0
  8  9  2  0
  9 10  1  0
 10 11  1  0
 11 12  2  0
  2 13  1  0
 13 14  4  0
 14 15  4  0
 15 16  4  0
 16 17  4  0
 17 18  4  0
 18 19  1  0
 12  6  1  0
 18 13  4  0
 10  8  1  0
  3 20  1  0
  4 21  1  0
  4 22  1  0
  5 23  1  0
  5 24  1  0
  7 25  1  0
  9 26  1  0
 11 27  1  0
 12 28  1  0
 14 29  1  0
 15 30  1  0
 16 31  1  0
 17 32  1  0
M  END
