
     RDKit          3D

 50 52  0  0  0  0  0  0  0  0999 V2000
    8.0940   -1.4290   21.0560 C   0  0  0  0  0  0  0  0  0  0  0  0
    6.8940   -1.9120   20.3780 N   0  0  0  0  0  0  0  0  0  0  0  0
    6.8150   -1.4400   18.9840 C   0  0  0  0  0  0  0  0  0  0  0  0
    6.0010   -0.3190   18.9340 C   0  0  0  0  0  0  0  0  0  0  0  0
    5.0310    0.0120   20.0790 C   0  0  0  0  0  0  0  0  0  0  0  0
    4.1930    1.2190   19.9210 C   0  0  0  0  0  0  0  0  0  0  0  0
    3.2250    1.7920   20.7240 C   0  0  0  0  0  0  0  0  0  0  0  0
    3.6130    2.0310   22.1790 C   0  0  0  0  0  0  0  0  0  0  0  0
    3.4330    2.3100   23.2950 N   0  0  0  0  0  0  0  0  0  0  0  0
    2.3390    1.7500   23.9260 C   0  0  0  0  0  0  0  0  0  0  0  0
    2.1860    0.3440   23.9810 O   0  0  0  0  0  0  0  0  0  0  0  0
    1.2580    2.6000   24.5720 C   0  0  0  0  0  0  0  0  0  0  0  0
   -0.1880    2.1210   24.5760 C   0  0  0  0  0  0  0  0  0  0  0  0
   -1.1410    2.9200   25.1800 C   0  0  0  0  0  0  0  0  0  0  0  0
   -0.7750    4.1350   25.7700 C   0  0  0  0  0  0  0  0  0  0  0  0
    0.5540    4.5770   25.7660 C   0  0  0  0  0  0  0  0  0  0  0  0
    1.5750    3.8270   25.1750 C   0  0  0  0  0  0  0  0  0  0  0  0
    2.8300    4.2970   25.2010 F   0  0  0  0  0  0  0  0  0  0  0  0
    4.3160    2.0010   18.7580 C   0  0  0  0  0  0  0  0  0  0  0  0
    5.3050    1.5790   17.6990 C   0  0  0  0  0  0  0  0  0  0  0  0
    6.0880    0.4860   17.8010 N   0  0  0  0  0  0  0  0  0  0  0  0
    6.1370   -3.1050   20.7650 C   0  0  0  0  0  0  0  0  0  0  0  0
    5.4560   -3.9430   19.8590 O   0  0  0  0  0  0  0  0  0  0  0  0
    6.1590   -3.3210   21.9110 N   0  0  0  0  0  0  0  0  0  0  0  0
    5.5860   -4.5220   22.3130 C   0  0  1  0  0  0  0  0  0  0  0  0
    6.1430   -5.6830   21.9820 C   0  0  0  0  0  0  0  0  0  0  0  0
    6.4330   -5.5140   23.3500 C   0  0  0  0  0  0  0  0  0  0  0  0
    7.8860   -1.2920   22.1210 H   0  0  0  0  0  0  0  0  0  0  0  0
    8.9210   -2.1370   20.9750 H   0  0  0  0  0  0  0  0  0  0  0  0
    8.3990   -0.4690   20.6420 H   0  0  0  0  0  0  0  0  0  0  0  0
    7.8070   -1.1720   18.6040 H   0  0  0  0  0  0  0  0  0  0  0  0
    6.3860   -2.2160   18.3430 H   0  0  0  0  0  0  0  0  0  0  0  0
    4.9600   -0.6220   20.9710 H   0  0  0  0  0  0  0  0  0  0  0  0
    2.9790    2.7710   20.3000 H   0  0  0  0  0  0  0  0  0  0  0  0
    2.3240    1.1700   20.6820 H   0  0  0  0  0  0  0  0  0  0  0  0
    4.3470    2.8200   21.9850 H   0  0  0  0  0  0  0  0  0  0  0  0
    4.2390    1.1770   22.4450 H   0  0  0  0  0  0  0  0  0  0  0  0
    3.8210    3.1880   23.6440 H   0  0  0  0  0  0  0  0  0  0  0  0
   -0.5020    1.1810   24.1280 H   0  0  0  0  0  0  0  0  0  0  0  0
   -2.1660    2.5470   25.1650 H   0  0  0  0  0  0  0  0  0  0  0  0
   -1.5400    4.7480   26.2390 H   0  0  0  0  0  0  0  0  0  0  0  0
    0.7950    5.5290   26.2340 H   0  0  0  0  0  0  0  0  0  0  0  0
    3.7610    2.9150   18.5070 H   0  0  0  0  0  0  0  0  0  0  0  0
    5.4220    2.1590   16.7880 H   0  0  0  0  0  0  0  0  0  0  0  0
    7.0130   -3.0650   22.3860 H   0  0  0  0  0  0  0  0  0  0  0  0
    4.5160   -4.4530   22.4880 H   0  0  0  0  0  0  0  0  0  0  0  0
    6.9330   -5.5760   21.2280 H   0  0  0  0  0  0  0  0  0  0  0  0
    5.4030   -6.4260   21.6580 H   0  0  0  0  0  0  0  0  0  0  0  0
    7.4490   -5.2630   23.6780 H   0  0  0  0  0  0  0  0  0  0  0  0
    5.9020   -6.1010   24.1060 H   0  0  0  0  0  0  0  0  0  0  0  0
  1  2  1  0
  2  3  1  0
  3  4  1  0
  4  5  2  0
  5  6  1  0
  6  7  1  0
  7  8  1  0
  8  9  1  0
  9 10  1  0
 10 11  2  0
 10 12  1  0
 12 13  2  0
 13 14  1  0
 14 15  2  0
 15 16  1  0
 12 17  1  0
 16 17  2  0
 17 18  1  0
  6 19  2  0
 19 20  1  0
  4 21  1  0
 20 21  2  0
  2 22  1  0
 22 23  2  0
 22 24  1  0
 24 25  1  0
 25 26  1  0
 25 27  1  0
 26 27  1  0
  1 28  1  0
  1 29  1  0
  1 30  1  0
  3 31  1  0
  3 32  1  0
  5 33  1  0
  7 34  1  0
  7 35  1  0
  8 36  1  0
  8 37  1  0
  9 38  1  0
 13 39  1  0
 14 40  1  0
 15 41  1  0
 16 42  1  0
 19 43  1  0
 20 44  1  0
 24 45  1  0
 25 46  1  1
 26 47  1  0
 26 48  1  0
 27 49  1  0
 27 50  1  0
M  END
