LIG
     RDKit          3D

 61 64  0  0  0  0  0  0  0  0999 V2000
    9.4190    1.1020   21.0000 O   0  0  0  0  0  0  0  0  0  0  0  0
    8.8650    0.3120   21.6960 C   0  0  0  0  0  0  0  0  0  0  0  0
    9.4090   -0.1550   23.0330 C   0  0  0  0  0  0  0  0  0  0  0  0
   10.9230   -0.0800   23.0900 C   0  0  0  0  0  0  0  0  0  0  0  0
   11.2810   -0.4020   24.5270 C   0  0  0  0  0  0  0  0  0  0  0  0
   12.7710   -0.1530   24.6900 C   0  0  0  0  0  0  0  0  0  0  0  0
   13.6100   -0.8590   23.6290 C   0  0  0  0  0  0  0  0  0  0  0  0
   12.8180   -1.7130   22.6470 C   0  0  0  0  0  0  0  0  0  0  0  0
   11.5620   -1.0470   22.0960 C   0  0  0  0  0  0  0  0  0  0  0  0
    7.6120   -0.2560   21.3260 N   0  0  0  0  0  0  0  0  0  0  0  0
    7.0000    0.1710   20.1090 C   0  0  0  0  0  0  0  0  0  0  0  0
    7.1615   -0.0495   19.0205 C   0  0  0  0  0  0  0  0  0  0  0  0
    6.7790    0.4140   17.8735 N   0  0  0  0  0  0  0  0  0  0  0  0
    5.7040    1.1305   17.7770 C   0  0  0  0  0  0  0  0  0  0  0  0
    4.9320    1.4350   18.8700 C   0  0  0  0  0  0  0  0  0  0  0  0
    4.8370    1.1650   19.9330 C   0  0  0  0  0  0  0  0  0  0  0  0
    3.8370    1.6420   20.9890 C   0  0  0  0  0  0  0  0  0  0  0  0
    4.3320    1.7170   22.4340 C   0  0  0  0  0  0  0  0  0  0  0  0
    3.3230    2.4740   23.1750 N   0  0  0  0  0  0  0  0  0  0  0  0
    2.1860    1.8200   23.8150 C   0  0  0  0  0  0  0  0  0  0  0  0
    2.0580    0.6400   23.7610 O   0  0  0  0  0  0  0  0  0  0  0  0
    1.1280    2.6340   24.5580 C   0  0  0  0  0  0  0  0  0  0  0  0
   -0.1860    2.1670   24.5890 C   0  0  0  0  0  0  0  0  0  0  0  0
   -1.1770    2.8770   25.2530 C   0  0  0  0  0  0  0  0  0  0  0  0
   -0.8610    4.0710   25.8830 C   0  0  0  0  0  0  0  0  0  0  0  0
    0.4450    4.5400   25.8480 C   0  0  0  0  0  0  0  0  0  0  0  0
    1.4450    3.8310   25.1930 C   0  0  0  0  0  0  0  0  0  0  0  0
    2.7270    4.3200   25.1830 F   0  0  0  0  0  0  0  0  0  0  0  0
    5.8035    0.5085   20.2250 C   0  0  0  0  0  0  0  0  0  0  0  0
    8.9606    0.4448   23.8284 H   0  0  0  0  0  0  0  0  0  0  0  0
    9.0787   -1.1898   23.1583 H   0  0  0  0  0  0  0  0  0  0  0  0
   11.2305    0.9309   22.8673 H   0  0  0  0  0  0  0  0  0  0  0  0
   10.7378    0.2462   25.1893 H   0  0  0  0  0  0  0  0  0  0  0  0
   11.0704   -1.4239   24.7784 H   0  0  0  0  0  0  0  0  0  0  0  0
   12.9731    0.9290   24.6685 H   0  0  0  0  0  0  0  0  0  0  0  0
   13.0956   -0.4991   25.6850 H   0  0  0  0  0  0  0  0  0  0  0  0
   14.1866   -0.0929   23.0658 H   0  0  0  0  0  0  0  0  0  0  0  0
   14.3856   -1.4851   24.1196 H   0  0  0  0  0  0  0  0  0  0  0  0
   12.5293   -2.6617   23.1286 H   0  0  0  0  0  0  0  0  0  0  0  0
   13.4829   -1.9988   21.8154 H   0  0  0  0  0  0  0  0  0  0  0  0
   10.8305   -1.8254   21.8226 H   0  0  0  0  0  0  0  0  0  0  0  0
   11.8142   -0.5315   21.1560 H   0  0  0  0  0  0  0  0  0  0  0  0
    7.1992   -0.9398   21.8979 H   0  0  0  0  0  0  0  0  0  0  0  0
    7.7230    1.4307   20.3918 H   0  0  0  0  0  0  0  0  0  0  0  0
    6.7596   -1.2736   18.9369 H   0  0  0  0  0  0  0  0  0  0  0  0
    7.5905    0.9381   17.3863 H   0  0  0  0  0  0  0  0  0  0  0  0
    5.0303    0.6556   16.9639 H   0  0  0  0  0  0  0  0  0  0  0  0
    5.9586    2.1155   17.2195 H   0  0  0  0  0  0  0  0  0  0  0  0
    3.7656    1.4345   18.3340 H   0  0  0  0  0  0  0  0  0  0  0  0
    4.8971    2.7086   18.7315 H   0  0  0  0  0  0  0  0  0  0  0  0
    4.0839    0.0294   19.7081 H   0  0  0  0  0  0  0  0  0  0  0  0
    2.9506    0.9763   20.9652 H   0  0  0  0  0  0  0  0  0  0  0  0
    3.4456    2.6341   20.6876 H   0  0  0  0  0  0  0  0  0  0  0  0
    5.2699    2.2301   22.5114 H   0  0  0  0  0  0  0  0  0  0  0  0
    4.3787    0.7436   22.8846 H   0  0  0  0  0  0  0  0  0  0  0  0
    3.4472    3.4503   23.3387 H   0  0  0  0  0  0  0  0  0  0  0  0
   -0.4460    1.2317   24.0855 H   0  0  0  0  0  0  0  0  0  0  0  0
   -2.1962    2.4970   25.2778 H   0  0  0  0  0  0  0  0  0  0  0  0
   -1.6320    4.6368   26.4022 H   0  0  0  0  0  0  0  0  0  0  0  0
    0.7002    5.4838   26.3430 H   0  0  0  0  0  0  0  0  0  0  0  0
    5.2997   -0.7421   20.3652 H   0  0  0  0  0  0  0  0  0  0  0  0
  1  2  2  0
  2  3  1  0
  3  4  1  0
  4  5  1  0
  5  6  1  0
  6  7  1  0
  7  8  1  0
  8  9  1  0
  2 10  1  0
 10 11  1  0
 11 12  1  0
 12 13  1  0
 13 14  1  0
 14 15  1  0
 15 16  1  0
 16 17  1  0
 17 18  1  0
 18 19  1  0
 19 20  1  0
 20 21  2  0
 20 22  1  0
 22 23  4  0
 23 24  4  0
 24 25  4  0
 25 26  4  0
 26 27  4  0
 27 28  1  0
 16 29  1  0
  9  4  1  0
 29 11  1  0
 29 12  1  0
 27 22  4  0
  3 30  1  0
  3 31  1  0
  4 32  1  0
  5 33  1  0
  5 34  1  0
  6 35  1  0
  6 36  1  0
  7 37  1  0
  7 38  1  0
  8 39  1  0
  8 40  1  0
  9 41  1  0
  9 42  1  0
 10 43  1  0
 11 44  1  0
 12 45  1  0
 13 46  1  0
 14 47  1  0
 14 48  1  0
 15 49  1  0
 15 50  1  0
 16 51  1  0
 17 52  1  0
 17 53  1  0
 18 54  1  0
 18 55  1  0
 19 56  1  0
 23 57  1  0
 24 58  1  0
 25 59  1  0
 26 60  1  0
 29 61  1  0
M  END
