
     RDKit          3D

 41 43  0  0  0  0  0  0  0  0999 V2000
    8.6190    0.6790   23.4810 C   0  0  0  0  0  0  0  0  0  0  0  0
   10.0390    0.3710   23.1190 C   0  0  0  0  0  0  0  0  0  0  0  0
   10.3770   -0.9040   22.7700 C   0  0  0  0  0  0  0  0  0  0  0  0
    9.1540   -1.6710   22.7130 N   0  0  0  0  0  0  0  0  0  0  0  0
    8.3900   -0.8350   21.7060 C   0  0  0  0  0  0  0  0  0  0  0  0
    8.9000    0.3840   21.2140 O   0  0  0  0  0  0  0  0  0  0  0  0
    7.0730   -1.2930   21.2380 N   0  0  0  0  0  0  0  0  0  0  0  0
    6.4570   -0.4340   20.1790 C   0  0  0  0  0  0  0  0  0  0  0  0
    5.3030    0.2690   20.4900 C   0  0  0  0  0  0  0  0  0  0  0  0
    4.6530    1.1570   19.4260 C   0  0  0  0  0  0  0  0  0  0  0  0
    5.3480    1.1480   18.2020 C   0  0  0  0  0  0  0  0  0  0  0  0
    6.4670    0.4670   17.9020 N   0  0  0  0  0  0  0  0  0  0  0  0
    6.9800   -0.2980   18.8950 C   0  0  0  0  0  0  0  0  0  0  0  0
   11.8740   -1.2360   22.4780 C   0  0  0  0  0  0  0  0  0  0  0  0
   12.7380   -0.1280   22.5450 C   0  0  0  0  0  0  0  0  0  0  0  0
   12.2620    1.1690   22.8360 C   0  0  0  0  0  0  0  0  0  0  0  0
   13.0770    2.2830   22.8240 C   0  0  0  0  0  0  0  0  0  0  0  0
   12.6380    3.5990   23.0760 C   0  0  0  0  0  0  0  0  0  0  0  0
   11.2850    3.8470   23.3900 C   0  0  0  0  0  0  0  0  0  0  0  0
   10.5490    5.4330   23.7180 S   0  0  2  0  0  0  0  0  0  0  0  0
   11.6800    6.5020   23.1230 N   0  0  0  0  0  0  0  0  0  0  0  0
   10.3780    5.6640   25.1220 O   0  0  0  0  0  0  0  0  0  0  0  0
    9.4030    5.5130   22.8440 O   0  0  0  0  0  0  0  0  0  0  0  0
   10.4360    2.6260   23.4150 C   0  0  0  0  0  0  0  0  0  0  0  0
   10.9340    1.3950   23.1310 C   0  0  0  0  0  0  0  0  0  0  0  0
    8.5660    1.2830   24.3910 H   0  0  0  0  0  0  0  0  0  0  0  0
    8.0750   -0.2510   23.6700 H   0  0  0  0  0  0  0  0  0  0  0  0
    8.1450    1.2320   22.6660 H   0  0  0  0  0  0  0  0  0  0  0  0
    8.6500   -1.8490   23.5710 H   0  0  0  0  0  0  0  0  0  0  0  0
    6.4470   -1.6340   21.9510 H   0  0  0  0  0  0  0  0  0  0  0  0
    4.8570    0.1910   21.4910 H   0  0  0  0  0  0  0  0  0  0  0  0
    3.7500    1.7350   19.5960 H   0  0  0  0  0  0  0  0  0  0  0  0
    4.9270    1.7680   17.4020 H   0  0  0  0  0  0  0  0  0  0  0  0
    7.8860   -0.8100   18.5390 H   0  0  0  0  0  0  0  0  0  0  0  0
   12.3040   -2.2070   22.2080 H   0  0  0  0  0  0  0  0  0  0  0  0
   13.8060   -0.1820   22.3520 H   0  0  0  0  0  0  0  0  0  0  0  0
   14.1150    2.1130   22.5910 H   0  0  0  0  0  0  0  0  0  0  0  0
   13.3560    4.4130   23.0270 H   0  0  0  0  0  0  0  0  0  0  0  0
   11.7220    6.5640   22.1080 H   0  0  0  0  0  0  0  0  0  0  0  0
   12.5900    6.2610   23.5250 H   0  0  0  0  0  0  0  0  0  0  0  0
    9.3830    2.7590   23.6500 H   0  0  0  0  0  0  0  0  0  0  0  0
  1  2  1  0
  2  3  2  0
  3  4  1  0
  4  5  1  0
  5  6  2  0
  5  7  1  0
  7  8  1  0
  8  9  2  0
  9 10  1  0
 10 11  2  0
 11 12  1  0
  8 13  1  0
 12 13  2  0
  3 14  1  0
 14 15  2  0
 15 16  1  0
 16 17  1  0
 17 18  2  0
 18 19  1  0
 19 20  1  0
 20 21  1  6
 20 22  2  0
 20 23  2  0
 19 24  2  0
  2 25  1  0
 16 25  2  0
 24 25  1  0
  1 26  1  0
  1 27  1  0
  1 28  1  0
  4 29  1  0
  7 30  1  0
  9 31  1  0
 10 32  1  0
 11 33  1  0
 13 34  1  0
 14 35  1  0
 15 36  1  0
 17 37  1  0
 18 38  1  0
 21 39  1  0
 21 40  1  0
 24 41  1  0
M  END
