LIG
     RDKit          3D

 48 50  0  0  0  0  0  0  0  0999 V2000
   13.9850   -1.7380   20.5810 N   0  0  0  0  0  0  0  0  0  0  0  0
   13.2800   -1.3010   21.3800 C   0  0  0  0  0  0  0  0  0  0  0  0
   12.6565   -0.4920   22.4455 C   0  0  0  0  0  0  0  0  0  0  0  0
   12.8440    0.5450   23.2755 C   0  0  0  0  0  0  0  0  0  0  0  0
   11.8385    0.9925   24.0915 C   0  0  0  0  0  0  0  0  0  0  0  0
   10.6555    0.4040   24.0790 C   0  0  0  0  0  0  0  0  0  0  0  0
    9.8330    1.0540   25.2470 C   0  0  0  0  0  0  0  0  0  0  0  0
    8.4500    0.7150   24.9220 N   0  0  0  0  0  0  0  0  0  0  0  0
    7.7030    1.4680   24.0150 C   0  0  0  0  0  0  0  0  0  0  0  0
    8.1720    2.4660   23.4420 O   0  0  0  0  0  0  0  0  0  0  0  0
    6.3360    0.9640   23.8050 N   0  0  0  0  0  0  0  0  0  0  0  0
    5.6140    1.6470   22.6990 C   0  0  0  0  0  0  0  0  0  0  0  0
    4.2210    1.0320   22.4570 C   0  0  0  0  0  0  0  0  0  0  0  0
    3.4750    1.0690   23.6570 O   0  0  0  0  0  0  0  0  0  0  0  0
    4.0500    0.3480   24.7320 C   0  0  0  0  0  0  0  0  0  0  0  0
    5.4800    0.8530   25.0320 C   0  0  0  0  0  0  0  0  0  0  0  0
   10.4800   -0.6375   23.2540 C   0  0  0  0  0  0  0  0  0  0  0  0
    9.2320   -0.9350   22.4160 N   0  0  0  0  0  0  0  0  0  0  0  0
    8.5920   -0.2080   21.3470 C   0  0  0  0  0  0  0  0  0  0  0  0
    9.1440    0.7090   20.8350 O   0  0  0  0  0  0  0  0  0  0  0  0
    7.2840   -0.6350   20.9180 N   0  0  0  0  0  0  0  0  0  0  0  0
    6.6030    0.0510   19.8530 C   0  0  0  0  0  0  0  0  0  0  0  0
    5.3980    0.6740   20.1340 C   0  0  0  0  0  0  0  0  0  0  0  0
    4.7680    1.3310   19.0890 C   0  0  0  0  0  0  0  0  0  0  0  0
    5.3600    1.2970   17.8310 C   0  0  0  0  0  0  0  0  0  0  0  0
    6.5100    0.7030   17.6230 N   0  0  0  0  0  0  0  0  0  0  0  0
    7.1440    0.0770   18.5790 C   0  0  0  0  0  0  0  0  0  0  0  0
   11.4720   -1.0840   22.4290 C   0  0  0  0  0  0  0  0  0  0  0  0
   13.8256    1.0648   23.3171 H   0  0  0  0  0  0  0  0  0  0  0  0
   12.0679    1.8478   24.7479 H   0  0  0  0  0  0  0  0  0  0  0  0
    9.9773    2.0920   25.2306 H   0  0  0  0  0  0  0  0  0  0  0  0
   10.0499    0.5751   26.1550 H   0  0  0  0  0  0  0  0  0  0  0  0
    7.8876    0.4007   25.7158 H   0  0  0  0  0  0  0  0  0  0  0  0
    6.2413    1.5354   21.8062 H   0  0  0  0  0  0  0  0  0  0  0  0
    5.5275    2.7159   22.9221 H   0  0  0  0  0  0  0  0  0  0  0  0
    3.6943    1.6038   21.7099 H   0  0  0  0  0  0  0  0  0  0  0  0
    4.3182    0.0088   22.1381 H   0  0  0  0  0  0  0  0  0  0  0  0
    3.4231    0.4777   25.6077 H   0  0  0  0  0  0  0  0  0  0  0  0
    4.0739   -0.7065   24.4717 H   0  0  0  0  0  0  0  0  0  0  0  0
    5.4417    1.8649   25.4591 H   0  0  0  0  0  0  0  0  0  0  0  0
    5.9684    0.1920   25.7594 H   0  0  0  0  0  0  0  0  0  0  0  0
    8.9070   -1.8932   22.4940 H   0  0  0  0  0  0  0  0  0  0  0  0
    6.8109   -1.2626   21.4527 H   0  0  0  0  0  0  0  0  0  0  0  0
    4.9480    0.6735   21.1037 H   0  0  0  0  0  0  0  0  0  0  0  0
    3.8356    1.8629   19.2413 H   0  0  0  0  0  0  0  0  0  0  0  0
    4.8833    1.7660   16.9839 H   0  0  0  0  0  0  0  0  0  0  0  0
    8.0593   -0.3915   18.3302 H   0  0  0  0  0  0  0  0  0  0  0  0
   11.3059   -1.9282   21.7525 H   0  0  0  0  0  0  0  0  0  0  0  0
  1  2  3  0
  2  3  1  0
  3  4  4  0
  4  5  4  0
  5  6  4  0
  6  7  1  0
  7  8  1  0
  8  9  1  0
  9 10  2  0
  9 11  1  0
 11 12  1  0
 12 13  1  0
 13 14  1  0
 14 15  1  0
 15 16  1  0
  6 17  4  0
 17 18  1  0
 18 19  1  0
 19 20  2  0
 19 21  1  0
 21 22  1  0
 22 23  4  0
 23 24  4  0
 24 25  4  0
 25 26  4  0
 26 27  4  0
 17 28  4  0
 28  3  4  0
 16 11  1  0
 27 22  4  0
  4 29  1  0
  5 30  1  0
  7 31  1  0
  7 32  1  0
  8 33  1  0
 12 34  1  0
 12 35  1  0
 13 36  1  0
 13 37  1  0
 15 38  1  0
 15 39  1  0
 16 40  1  0
 16 41  1  0
 18 42  1  0
 21 43  1  0
 23 44  1  0
 24 45  1  0
 25 46  1  0
 27 47  1  0
 28 48  1  0
M  END
