
     RDKit          3D

 35 37  0  0  0  0  0  0  0  0999 V2000
    8.7890   -5.1940   26.0870 C   0  0  0  0  0  0  0  0  0  0  0  0
    8.6360   -3.8230   25.4620 C   0  0  0  0  0  0  0  0  0  0  0  0
    8.1340   -2.6990   26.0890 N   0  0  0  0  0  0  0  0  0  0  0  0
    8.1900   -1.5540   25.1380 N   0  0  0  0  0  0  0  0  0  0  0  0
    8.7290   -1.9300   23.8810 C   0  0  0  0  0  0  0  0  0  0  0  0
    8.9450   -1.0140   22.8440 N   0  0  0  0  0  0  0  0  0  0  0  0
    8.1890   -0.2740   21.8900 C   0  0  0  0  0  0  0  0  0  0  0  0
    8.6120    1.0160   21.5040 O   0  0  0  0  0  0  0  0  0  0  0  0
    6.9700   -0.8400   21.2210 N   0  0  0  0  0  0  0  0  0  0  0  0
    6.3590   -0.1640   20.1400 C   0  0  0  0  0  0  0  0  0  0  0  0
    5.1710    0.5080   20.4030 C   0  0  0  0  0  0  0  0  0  0  0  0
    4.5580    1.2480   19.2170 C   0  0  0  0  0  0  0  0  0  0  0  0
    5.2040    1.2120   17.9710 C   0  0  0  0  0  0  0  0  0  0  0  0
    6.3570    0.5250   17.8100 N   0  0  0  0  0  0  0  0  0  0  0  0
    6.8900   -0.1280   18.8580 C   0  0  0  0  0  0  0  0  0  0  0  0
   10.3270   -0.5890   22.8770 C   0  0  0  0  0  0  0  0  0  0  0  0
   10.7400    0.5460   23.5450 C   0  0  0  0  0  0  0  0  0  0  0  0
   12.0510    0.9190   23.5370 C   0  0  0  0  0  0  0  0  0  0  0  0
   13.0010    0.2170   22.8930 C   0  0  0  0  0  0  0  0  0  0  0  0
   12.7320   -0.9350   22.1950 C   0  0  0  0  0  0  0  0  0  0  0  0
   13.6620   -1.6140   21.5620 F   0  0  0  0  0  0  0  0  0  0  0  0
   11.4140   -1.4040   22.1410 C   0  0  0  0  0  0  0  0  0  0  0  0
    9.1530   -3.5870   23.7530 S   0  0  0  0  0  0  0  0  0  0  0  0
    9.7490   -5.6540   25.8270 H   0  0  0  0  0  0  0  0  0  0  0  0
    8.7390   -5.1050   27.1760 H   0  0  0  0  0  0  0  0  0  0  0  0
    7.9820   -5.8370   25.7330 H   0  0  0  0  0  0  0  0  0  0  0  0
    6.6550   -1.7670   21.4780 H   0  0  0  0  0  0  0  0  0  0  0  0
    4.7050    0.5160   21.3830 H   0  0  0  0  0  0  0  0  0  0  0  0
    3.6300    1.7750   19.4240 H   0  0  0  0  0  0  0  0  0  0  0  0
    4.8030    1.7280   17.1080 H   0  0  0  0  0  0  0  0  0  0  0  0
    7.8220   -0.6480   18.6030 H   0  0  0  0  0  0  0  0  0  0  0  0
    9.9400    1.0840   24.0490 H   0  0  0  0  0  0  0  0  0  0  0  0
   12.2700    1.8320   24.0870 H   0  0  0  0  0  0  0  0  0  0  0  0
   14.0580    0.5500   22.8990 H   0  0  0  0  0  0  0  0  0  0  0  0
   11.2020   -2.3140   21.5840 H   0  0  0  0  0  0  0  0  0  0  0  0
  1  2  1  0
  2  3  2  0
  3  4  1  0
  4  5  2  0
  5  6  1  0
  6  7  1  0
  7  8  2  0
  7  9  1  0
  9 10  1  0
 10 11  2  0
 11 12  1  0
 12 13  2  0
 13 14  1  0
 10 15  1  0
 14 15  2  0
  6 16  1  0
 16 17  2  0
 17 18  1  0
 18 19  2  0
 19 20  1  0
 20 21  1  0
 16 22  1  0
 20 22  2  0
  2 23  1  0
  5 23  1  0
  1 24  1  0
  1 25  1  0
  1 26  1  0
  9 27  1  0
 11 28  1  0
 12 29  1  0
 13 30  1  0
 15 31  1  0
 17 32  1  0
 18 33  1  0
 19 34  1  0
 22 35  1  0
M  END
