
     RDKit          3D

 44 47  0  0  0  0  0  0  0  0999 V2000
    3.9140    3.1290   19.5700 C   0  0  0  0  0  0  0  0  0  0  0  0
    4.7890    1.9470   19.3350 C   0  0  0  0  0  0  0  0  0  0  0  0
    4.9670    1.5760   17.9950 C   0  0  0  0  0  0  0  0  0  0  0  0
    5.7730    0.4200   17.6740 N   0  0  0  0  0  0  0  0  0  0  0  0
    6.3590   -0.2880   18.7700 C   0  0  0  0  0  0  0  0  0  0  0  0
    6.1560    0.1940   20.1190 C   0  0  0  0  0  0  0  0  0  0  0  0
    5.3860    1.2710   20.4150 C   0  0  0  0  0  0  0  0  0  0  0  0
    6.9540   -0.7310   20.9500 N   0  0  0  0  0  0  0  0  0  0  0  0
    8.1590   -0.3140   21.5210 C   0  0  0  0  0  0  0  0  0  0  0  0
    8.6890    0.7690   21.2810 O   0  0  0  0  0  0  0  0  0  0  0  0
    8.9610   -1.1390   22.5000 N   0  0  0  0  0  0  0  0  0  0  0  0
   10.4010   -0.6860   22.5930 C   0  0  0  0  0  0  0  0  0  0  0  0
   11.6070   -1.5740   22.3750 C   0  0  0  0  0  0  0  0  0  0  0  0
   12.9580   -0.8740   22.5230 C   0  0  0  0  0  0  0  0  0  0  0  0
   13.0750    0.4570   22.8260 C   0  0  0  0  0  0  0  0  0  0  0  0
   11.9250    1.1650   22.9990 C   0  0  0  0  0  0  0  0  0  0  0  0
   10.6310    0.6760   22.9050 C   0  0  0  0  0  0  0  0  0  0  0  0
    7.0210   -1.9360   20.1360 N   0  0  0  0  0  0  0  0  0  0  0  0
    6.1940   -3.0920   20.5670 C   0  0  0  0  0  0  0  0  0  0  0  0
    5.5430   -3.8290   19.8090 O   0  0  0  0  0  0  0  0  0  0  0  0
    6.2400   -3.2880   21.9090 N   0  0  0  0  0  0  0  0  0  0  0  0
    5.6810   -4.5430   22.4540 C   0  0  2  0  0  0  0  0  0  0  0  0
    6.4290   -5.3010   23.2650 C   0  0  0  0  0  0  0  0  0  0  0  0
    6.1080   -5.8250   21.9100 C   0  0  0  0  0  0  0  0  0  0  0  0
    7.1720   -1.4940   18.8070 C   0  0  0  0  0  0  0  0  0  0  0  0
    3.4740    3.4910   18.6370 H   0  0  0  0  0  0  0  0  0  0  0  0
    4.5150    3.9350   20.0010 H   0  0  0  0  0  0  0  0  0  0  0  0
    3.1150    2.8500   20.2590 H   0  0  0  0  0  0  0  0  0  0  0  0
    4.5420    2.0880   17.1490 H   0  0  0  0  0  0  0  0  0  0  0  0
    5.2350    1.6050   21.4370 H   0  0  0  0  0  0  0  0  0  0  0  0
    8.8050   -2.1320   22.4110 H   0  0  0  0  0  0  0  0  0  0  0  0
   11.5220   -2.6290   22.1310 H   0  0  0  0  0  0  0  0  0  0  0  0
   13.8710   -1.4540   22.3800 H   0  0  0  0  0  0  0  0  0  0  0  0
   14.0840    0.8540   22.9000 H   0  0  0  0  0  0  0  0  0  0  0  0
   12.1080    2.2220   23.2350 H   0  0  0  0  0  0  0  0  0  0  0  0
    9.8380    1.4360   23.0890 H   0  0  0  0  0  0  0  0  0  0  0  0
    6.0840   -2.4450   22.4500 H   0  0  0  0  0  0  0  0  0  0  0  0
    4.6090   -4.4480   22.6480 H   0  0  0  0  0  0  0  0  0  0  0  0
    7.4390   -5.0260   23.4710 H   0  0  0  0  0  0  0  0  0  0  0  0
    5.9380   -5.7660   24.1110 H   0  0  0  0  0  0  0  0  0  0  0  0
    6.8970   -5.8330   21.1670 H   0  0  0  0  0  0  0  0  0  0  0  0
    5.3950   -6.6370   21.8310 H   0  0  0  0  0  0  0  0  0  0  0  0
    8.1990   -1.2390   18.6260 H   0  0  0  0  0  0  0  0  0  0  0  0
    6.8070   -2.1770   18.0560 H   0  0  0  0  0  0  0  0  0  0  0  0
  1  2  1  0
  2  3  2  0
  3  4  1  0
  4  5  2  0
  5  6  1  0
  2  7  1  0
  6  7  2  0
  6  8  1  0
  8  9  1  0
  9 10  2  0
  9 11  1  0
 11 12  1  0
 12 13  2  0
 13 14  1  0
 14 15  2  0
 15 16  1  0
 12 17  1  0
 16 17  2  0
  8 18  1  0
 18 19  1  0
 19 20  2  0
 19 21  1  0
 21 22  1  0
 22 23  1  0
 22 24  1  0
 23 24  1  0
  5 25  1  0
 18 25  1  0
  1 26  1  0
  1 27  1  0
  1 28  1  0
  3 29  1  0
  7 30  1  0
 11 31  1  0
 13 32  1  0
 14 33  1  0
 15 34  1  0
 16 35  1  0
 17 36  1  0
 21 37  1  0
 22 38  1  1
 23 39  1  0
 23 40  1  0
 24 41  1  0
 24 42  1  0
 25 43  1  0
 25 44  1  0
M  END
