
     RDKit          3D

 38 39  0  0  0  0  0  0  0  0999 V2000
    6.6210   -4.8300   26.0490 C   0  0  0  0  0  0  0  0  0  0  0  0
    8.2600   -4.2310   25.6890 S   0  0  2  0  0  0  0  0  0  0  0  0
    9.0040   -5.2900   25.0600 O   0  0  0  0  0  0  0  0  0  0  0  0
    8.7390   -3.6460   26.9080 O   0  0  0  0  0  0  0  0  0  0  0  0
    7.9770   -2.9400   24.5980 N   0  0  0  0  0  0  0  0  0  0  0  0
    8.6310   -2.8410   23.2450 C   0  0  0  0  0  0  0  0  0  0  0  0
    8.9840   -1.4520   22.8180 N   0  0  0  0  0  0  0  0  0  0  0  0
    8.3180   -0.6600   21.7960 C   0  0  0  0  0  0  0  0  0  0  0  0
    8.8000    0.4270   21.4680 O   0  0  0  0  0  0  0  0  0  0  0  0
    7.1450   -1.0840   21.1710 N   0  0  0  0  0  0  0  0  0  0  0  0
    6.4560   -0.3070   20.1790 C   0  0  0  0  0  0  0  0  0  0  0  0
    5.1950    0.4660   20.4000 C   0  0  0  0  0  0  0  0  0  0  0  0
    4.5460    1.2220   19.4310 C   0  0  0  0  0  0  0  0  0  0  0  0
    5.2910    1.1640   18.1000 C   0  0  0  0  0  0  0  0  0  0  0  0
    6.4300    0.4730   17.8730 N   0  0  0  0  0  0  0  0  0  0  0  0
    6.9870   -0.2390   18.8810 C   0  0  0  0  0  0  0  0  0  0  0  0
   10.3510   -1.0170   22.9460 C   0  0  0  0  0  0  0  0  0  0  0  0
   11.4880   -1.6720   22.1630 C   0  0  0  0  0  0  0  0  0  0  0  0
   12.7730   -1.1900   22.3050 C   0  0  0  0  0  0  0  0  0  0  0  0
   13.0230   -0.1200   23.1500 C   0  0  0  0  0  0  0  0  0  0  0  0
   12.0110    0.4820   23.8720 C   0  0  0  0  0  0  0  0  0  0  0  0
   10.7020    0.0460   23.7790 C   0  0  0  0  0  0  0  0  0  0  0  0
    6.1840   -4.2050   26.8350 H   0  0  0  0  0  0  0  0  0  0  0  0
    6.6750   -5.8590   26.4140 H   0  0  0  0  0  0  0  0  0  0  0  0
    5.9990   -4.7780   25.1530 H   0  0  0  0  0  0  0  0  0  0  0  0
    7.0480   -2.5630   24.7290 H   0  0  0  0  0  0  0  0  0  0  0  0
    9.5580   -3.4250   23.2600 H   0  0  0  0  0  0  0  0  0  0  0  0
    7.9530   -3.3070   22.5240 H   0  0  0  0  0  0  0  0  0  0  0  0
    6.5630   -1.7290   21.7020 H   0  0  0  0  0  0  0  0  0  0  0  0
    4.7610    0.4290   21.3990 H   0  0  0  0  0  0  0  0  0  0  0  0
    3.6380    1.8080   19.4970 H   0  0  0  0  0  0  0  0  0  0  0  0
    4.9110    1.7090   17.2360 H   0  0  0  0  0  0  0  0  0  0  0  0
    7.8980   -0.7690   18.6110 H   0  0  0  0  0  0  0  0  0  0  0  0
   11.3280   -2.5070   21.4860 H   0  0  0  0  0  0  0  0  0  0  0  0
   13.5470   -1.6900   21.7200 H   0  0  0  0  0  0  0  0  0  0  0  0
   14.0200    0.2510   23.2440 H   0  0  0  0  0  0  0  0  0  0  0  0
   12.2480    1.3100   24.5160 H   0  0  0  0  0  0  0  0  0  0  0  0
    9.9710    0.5730   24.3760 H   0  0  0  0  0  0  0  0  0  0  0  0
  1  2  1  0
  2  3  2  0
  2  4  2  0
  2  5  1  6
  5  6  1  0
  6  7  1  0
  7  8  1  0
  8  9  2  0
  8 10  1  0
 10 11  1  0
 11 12  2  0
 12 13  1  0
 13 14  2  0
 14 15  1  0
 11 16  1  0
 15 16  2  0
  7 17  1  0
 17 18  2  0
 18 19  1  0
 19 20  2  0
 20 21  1  0
 17 22  1  0
 21 22  2  0
  1 23  1  0
  1 24  1  0
  1 25  1  0
  5 26  1  0
  6 27  1  0
  6 28  1  0
 10 29  1  0
 12 30  1  0
 13 31  1  0
 14 32  1  0
 16 33  1  0
 18 34  1  0
 19 35  1  0
 20 36  1  0
 21 37  1  0
 22 38  1  0
M  END
