
     RDKit          3D

 30 31  0  0  0  0  0  0  0  0999 V2000
    5.1540    0.8130   21.9800 C   0  0  0  0  0  0  0  0  0  0  0  0
    5.5350    0.6940   20.5360 C   0  0  0  0  0  0  0  0  0  0  0  0
    4.8900    1.4900   19.5820 C   0  0  0  0  0  0  0  0  0  0  0  0
    5.3230    1.3300   18.1340 C   0  0  0  0  0  0  0  0  0  0  0  0
    6.2850    0.4650   17.7730 N   0  0  0  0  0  0  0  0  0  0  0  0
    6.8620   -0.2750   18.7560 C   0  0  0  0  0  0  0  0  0  0  0  0
    6.5270   -0.1920   20.0810 C   0  0  0  0  0  0  0  0  0  0  0  0
    7.2340   -1.0370   20.8790 N   0  0  0  0  0  0  0  0  0  0  0  0
    8.3000   -0.4270   21.4790 C   0  0  0  0  0  0  0  0  0  0  0  0
    8.6820    0.7270   21.2840 O   0  0  0  0  0  0  0  0  0  0  0  0
    9.1200   -1.1970   22.4760 N   0  0  0  0  0  0  0  0  0  0  0  0
   10.4730   -0.5920   22.6100 C   0  0  0  0  0  0  0  0  0  0  0  0
   10.6860    0.8480   22.9120 C   0  0  0  0  0  0  0  0  0  0  0  0
   12.1030    1.3310   23.0150 C   0  0  0  0  0  0  0  0  0  0  0  0
   13.1380    0.4740   22.8410 C   0  0  0  0  0  0  0  0  0  0  0  0
   12.9160   -0.8720   22.5600 C   0  0  0  0  0  0  0  0  0  0  0  0
   11.6260   -1.4060   22.4440 C   0  0  0  0  0  0  0  0  0  0  0  0
    4.9970   -0.1670   22.4410 H   0  0  0  0  0  0  0  0  0  0  0  0
    4.2210    1.3770   22.0570 H   0  0  0  0  0  0  0  0  0  0  0  0
    5.9480    1.3370   22.5210 H   0  0  0  0  0  0  0  0  0  0  0  0
    4.1130    2.2010   19.8430 H   0  0  0  0  0  0  0  0  0  0  0  0
    4.8740    1.9110   17.3290 H   0  0  0  0  0  0  0  0  0  0  0  0
    7.6240   -0.9510   18.3900 H   0  0  0  0  0  0  0  0  0  0  0  0
    6.6860   -1.6620   21.4560 H   0  0  0  0  0  0  0  0  0  0  0  0
    8.6630   -1.4270   23.3430 H   0  0  0  0  0  0  0  0  0  0  0  0
    9.8350    1.5290   23.0520 H   0  0  0  0  0  0  0  0  0  0  0  0
   12.2860    2.3900   23.2320 H   0  0  0  0  0  0  0  0  0  0  0  0
   14.1690    0.7700   22.8990 H   0  0  0  0  0  0  0  0  0  0  0  0
   13.7720   -1.5260   22.4260 H   0  0  0  0  0  0  0  0  0  0  0  0
   11.5300   -2.4690   22.2210 H   0  0  0  0  0  0  0  0  0  0  0  0
  1  2  1  0
  2  3  2  0
  3  4  1  0
  4  5  2  0
  5  6  1  0
  2  7  1  0
  6  7  2  0
  7  8  1  0
  8  9  1  0
  9 10  2  0
  9 11  1  0
 11 12  1  0
 12 13  2  0
 13 14  1  0
 14 15  2  0
 15 16  1  0
 12 17  1  0
 16 17  2  0
  1 18  1  0
  1 19  1  0
  1 20  1  0
  3 21  1  0
  4 22  1  0
  6 23  1  0
  8 24  1  0
 11 25  1  0
 13 26  1  0
 14 27  1  0
 15 28  1  0
 16 29  1  0
 17 30  1  0
M  END
