
     RDKit          3D

 43 45  0  0  0  0  0  0  0  0999 V2000
    8.6910    0.4320   21.4330 O   0  0  0  0  0  0  0  0  0  0  0  0
    8.3440   -0.8370   21.9840 C   0  0  0  0  0  0  0  0  0  0  0  0
    7.0700   -1.3270   21.4230 N   0  0  0  0  0  0  0  0  0  0  0  0
    6.5300   -0.4850   20.2830 C   0  0  0  0  0  0  0  0  0  0  0  0
    5.3930    0.2840   20.5660 C   0  0  0  0  0  0  0  0  0  0  0  0
    4.6740    1.2060   19.5650 C   0  0  0  0  0  0  0  0  0  0  0  0
    5.2660    1.2600   18.1880 C   0  0  0  0  0  0  0  0  0  0  0  0
    6.4730    0.4200   17.9520 N   0  0  0  0  0  0  0  0  0  0  0  0
    7.0760   -0.4300   18.9930 C   0  0  0  0  0  0  0  0  0  0  0  0
    9.2310   -1.4730   22.9550 N   0  0  0  0  0  0  0  0  0  0  0  0
   10.5620   -0.9680   22.9310 C   0  0  0  0  0  0  0  0  0  0  0  0
   11.6020   -1.6230   22.2450 C   0  0  0  0  0  0  0  0  0  0  0  0
   12.9990   -1.0830   22.1920 C   0  0  0  0  0  0  0  0  0  0  0  0
   13.1260    0.2300   22.9560 C   0  0  0  0  0  0  0  0  0  0  0  0
   12.0800    0.8250   23.6150 C   0  0  0  0  0  0  0  0  0  0  0  0
   10.8320    0.2370   23.6030 C   0  0  0  0  0  0  0  0  0  0  0  0
    9.0980   -2.6250   23.8090 N   0  0  0  0  0  0  0  0  0  0  0  0
    7.8990   -2.7160   24.6670 C   0  0  0  0  0  0  0  0  0  0  0  0
    7.8970   -3.9710   25.3020 C   0  0  0  0  0  0  0  0  0  0  0  0
    8.9550   -4.0750   26.2150 C   0  0  1  0  0  0  0  0  0  0  0  0
    8.9450   -5.2360   27.0350 O   0  0  0  0  0  0  0  0  0  0  0  0
   10.2710   -3.9690   25.4750 C   0  0  0  0  0  0  0  0  0  0  0  0
   10.3610   -2.8780   24.5910 C   0  0  0  0  0  0  0  0  0  0  0  0
    7.1180   -2.3320   21.2450 H   0  0  0  0  0  0  0  0  0  0  0  0
    4.9740    0.2290   21.5810 H   0  0  0  0  0  0  0  0  0  0  0  0
    3.7950    1.7790   19.8340 H   0  0  0  0  0  0  0  0  0  0  0  0
    4.8750    1.8650   17.3680 H   0  0  0  0  0  0  0  0  0  0  0  0
    7.9520   -0.9970   18.6920 H   0  0  0  0  0  0  0  0  0  0  0  0
   11.4850   -2.5630   21.6940 H   0  0  0  0  0  0  0  0  0  0  0  0
   13.8130   -1.5680   21.6700 H   0  0  0  0  0  0  0  0  0  0  0  0
   14.0860    0.7300   22.9850 H   0  0  0  0  0  0  0  0  0  0  0  0
   12.3180    1.7590   24.1180 H   0  0  0  0  0  0  0  0  0  0  0  0
   10.1240    0.8410   24.1690 H   0  0  0  0  0  0  0  0  0  0  0  0
    6.9780   -2.7490   24.0360 H   0  0  0  0  0  0  0  0  0  0  0  0
    7.8580   -1.8130   25.2690 H   0  0  0  0  0  0  0  0  0  0  0  0
    7.7680   -4.8180   24.6300 H   0  0  0  0  0  0  0  0  0  0  0  0
    6.9860   -4.0390   25.9070 H   0  0  0  0  0  0  0  0  0  0  0  0
    8.8700   -3.2550   26.9000 H   0  0  0  0  0  0  0  0  0  0  0  0
    8.0190   -5.5050   27.1610 H   0  0  0  0  0  0  0  0  0  0  0  0
   10.6000   -4.8980   25.0390 H   0  0  0  0  0  0  0  0  0  0  0  0
   11.0070   -3.8870   26.2650 H   0  0  0  0  0  0  0  0  0  0  0  0
   11.1610   -3.1280   23.9040 H   0  0  0  0  0  0  0  0  0  0  0  0
   10.6610   -1.9190   25.0100 H   0  0  0  0  0  0  0  0  0  0  0  0
  1  2  2  0
  2  3  1  0
  3  4  1  0
  4  5  2  0
  5  6  1  0
  6  7  2  0
  7  8  1  0
  4  9  1  0
  8  9  2  0
  2 10  1  0
 10 11  1  0
 11 12  2  0
 12 13  1  0
 13 14  2  0
 14 15  1  0
 11 16  1  0
 15 16  2  0
 10 17  1  0
 17 18  1  0
 18 19  1  0
 19 20  1  0
 20 21  1  0
 20 22  1  0
 17 23  1  0
 22 23  1  0
  3 24  1  0
  5 25  1  0
  6 26  1  0
  7 27  1  0
  9 28  1  0
 12 29  1  0
 13 30  1  0
 14 31  1  0
 15 32  1  0
 16 33  1  0
 18 34  1  0
 18 35  1  0
 19 36  1  0
 19 37  1  0
 20 38  1  1
 21 39  1  0
 22 40  1  0
 22 41  1  0
 23 42  1  0
 23 43  1  0
M  END
