LIG
     RDKit          3D

 54 57  0  0  0  0  0  0  0  0999 V2000
    9.1440    0.7090   20.8350 O   0  0  0  0  0  0  0  0  0  0  0  0
    8.5920   -0.2080   21.3470 C   0  0  0  0  0  0  0  0  0  0  0  0
    9.2320   -0.9350   22.4160 N   0  0  0  0  0  0  0  0  0  0  0  0
   10.5180   -0.4560   22.8190 C   0  0  0  0  0  0  0  0  0  0  0  0
   10.5550    0.3780   23.9180 C   0  0  0  0  0  0  0  0  0  0  0  0
   11.7600    0.8910   24.3310 C   0  0  0  0  0  0  0  0  0  0  0  0
   12.9190    0.5770   23.6360 C   0  0  0  0  0  0  0  0  0  0  0  0
   12.8740   -0.2570   22.5320 C   0  0  0  0  0  0  0  0  0  0  0  0
   11.6620   -0.7700   22.1120 C   0  0  0  0  0  0  0  0  0  0  0  0
    7.2840   -0.6350   20.9180 N   0  0  0  0  0  0  0  0  0  0  0  0
    6.6500   -0.0370   19.5035 C   0  0  0  0  0  0  0  0  0  0  0  0
    5.6245    0.4590   20.1675 C   0  0  0  0  0  0  0  0  0  0  0  0
    4.8370    1.1650   19.9330 C   0  0  0  0  0  0  0  0  0  0  0  0
    3.8370    1.6420   20.9890 C   0  0  0  0  0  0  0  0  0  0  0  0
    4.3320    1.7170   22.4340 C   0  0  0  0  0  0  0  0  0  0  0  0
    3.3230    2.4740   23.1750 N   0  0  0  0  0  0  0  0  0  0  0  0
    2.1860    1.8200   23.8150 C   0  0  0  0  0  0  0  0  0  0  0  0
    2.0580    0.6400   23.7610 O   0  0  0  0  0  0  0  0  0  0  0  0
    1.1280    2.6340   24.5580 C   0  0  0  0  0  0  0  0  0  0  0  0
   -0.1860    2.1670   24.5890 C   0  0  0  0  0  0  0  0  0  0  0  0
   -1.1770    2.8770   25.2530 C   0  0  0  0  0  0  0  0  0  0  0  0
   -0.8610    4.0710   25.8830 C   0  0  0  0  0  0  0  0  0  0  0  0
    0.4450    4.5400   25.8480 C   0  0  0  0  0  0  0  0  0  0  0  0
    1.4450    3.8310   25.1930 C   0  0  0  0  0  0  0  0  0  0  0  0
    2.7270    4.3200   25.1830 F   0  0  0  0  0  0  0  0  0  0  0  0
    4.7450    1.4965   18.8730 C   0  0  0  0  0  0  0  0  0  0  0  0
    5.4815    1.2670   17.7540 C   0  0  0  0  0  0  0  0  0  0  0  0
    6.5340    0.5385   17.7780 N   0  0  0  0  0  0  0  0  0  0  0  0
    7.1440    0.0770   18.5790 C   0  0  0  0  0  0  0  0  0  0  0  0
    8.8746   -1.7210   22.7088 H   0  0  0  0  0  0  0  0  0  0  0  0
    9.6543    0.6355   24.4634 H   0  0  0  0  0  0  0  0  0  0  0  0
   11.8157    1.5449   25.2023 H   0  0  0  0  0  0  0  0  0  0  0  0
   13.8772    0.9936   23.9630 H   0  0  0  0  0  0  0  0  0  0  0  0
   13.7872   -0.5061   21.9977 H   0  0  0  0  0  0  0  0  0  0  0  0
   11.6436   -1.4025   21.2347 H   0  0  0  0  0  0  0  0  0  0  0  0
    6.5732   -0.7702   21.5525 H   0  0  0  0  0  0  0  0  0  0  0  0
    5.1578   -0.5795   20.7066 H   0  0  0  0  0  0  0  0  0  0  0  0
    6.1642    0.7494   21.2656 H   0  0  0  0  0  0  0  0  0  0  0  0
    3.8823    0.0613   19.6859 H   0  0  0  0  0  0  0  0  0  0  0  0
    2.9415    0.9759   20.9563 H   0  0  0  0  0  0  0  0  0  0  0  0
    3.4281    2.6407   20.6987 H   0  0  0  0  0  0  0  0  0  0  0  0
    4.4216    0.7377   22.8629 H   0  0  0  0  0  0  0  0  0  0  0  0
    5.2493    2.2677   22.5092 H   0  0  0  0  0  0  0  0  0  0  0  0
    3.3594    3.4697   23.1946 H   0  0  0  0  0  0  0  0  0  0  0  0
   -0.4455    1.2307   24.0873 H   0  0  0  0  0  0  0  0  0  0  0  0
   -2.1962    2.4968   25.2783 H   0  0  0  0  0  0  0  0  0  0  0  0
   -1.6321    4.6373   26.4017 H   0  0  0  0  0  0  0  0  0  0  0  0
    0.7006    5.4842   26.3421 H   0  0  0  0  0  0  0  0  0  0  0  0
    3.5661    1.3226   18.4368 H   0  0  0  0  0  0  0  0  0  0  0  0
    4.5340    2.7497   18.8022 H   0  0  0  0  0  0  0  0  0  0  0  0
    4.7655    0.9415   16.8878 H   0  0  0  0  0  0  0  0  0  0  0  0
    5.7762    2.2964   17.3094 H   0  0  0  0  0  0  0  0  0  0  0  0
    7.8859   -1.0368   18.1459 H   0  0  0  0  0  0  0  0  0  0  0  0
    8.4200    0.6383   18.6137 H   0  0  0  0  0  0  0  0  0  0  0  0
  1  2  2  0
  2  3  1  0
  3  4  1  0
  4  5  4  0
  5  6  4  0
  6  7  4  0
  7  8  4  0
  8  9  4  0
  2 10  1  0
 10 11  1  0
 11 12  1  0
 12 13  1  0
 13 14  1  0
 14 15  1  0
 15 16  1  0
 16 17  1  0
 17 18  2  0
 17 19  1  0
 19 20  4  0
 20 21  4  0
 21 22  4  0
 22 23  4  0
 23 24  4  0
 24 25  1  0
 13 26  1  0
 26 27  1  0
 27 28  1  0
 28 29  1  0
  9  4  4  0
 28 11  1  0
 29 11  1  0
 24 19  4  0
  3 30  1  0
  5 31  1  0
  6 32  1  0
  7 33  1  0
  8 34  1  0
  9 35  1  0
 10 36  1  0
 12 37  1  0
 12 38  1  0
 13 39  1  0
 14 40  1  0
 14 41  1  0
 15 42  1  0
 15 43  1  0
 16 44  1  0
 20 45  1  0
 21 46  1  0
 22 47  1  0
 23 48  1  0
 26 49  1  0
 26 50  1  0
 27 51  1  0
 27 52  1  0
 29 53  1  0
 29 54  1  0
M  END
