
     RDKit          3D

 51 54  0  0  0  0  0  0  0  0999 V2000
    9.0190    6.6850   22.5140 C   0  0  0  0  0  0  0  0  0  0  0  0
   10.1590    6.2110   23.3730 C   0  0  0  0  0  0  0  0  0  0  0  0
   10.1690    6.3470   24.5930 O   0  0  0  0  0  0  0  0  0  0  0  0
   11.1680    5.6160   22.6640 N   0  0  0  0  0  0  0  0  0  0  0  0
   12.1670    4.8430   23.3810 C   0  0  0  0  0  0  0  0  0  0  0  0
   12.5610    3.5530   22.6590 C   0  0  0  0  0  0  0  0  0  0  0  0
   11.6960    2.3480   22.9640 C   0  0  2  0  0  0  0  0  0  0  0  0
   10.7820    2.2090   23.9360 C   0  0  0  0  0  0  0  0  0  0  0  0
   11.0740    0.7050   24.0820 C   0  0  1  0  0  0  0  0  0  0  0  0
    9.9620   -0.0370   23.7120 C   0  0  0  0  0  0  0  0  0  0  0  0
   10.2420   -1.2960   22.9590 C   0  0  1  0  0  0  0  0  0  0  0  0
    9.1720   -1.5780   21.9600 N   0  0  0  0  0  0  0  0  0  0  0  0
    8.4660   -0.4550   21.4960 C   0  0  0  0  0  0  0  0  0  0  0  0
    8.9610    0.6660   21.3820 O   0  0  0  0  0  0  0  0  0  0  0  0
    7.0650   -0.7970   21.1410 N   0  0  0  0  0  0  0  0  0  0  0  0
    6.4290   -0.0700   20.0840 C   0  0  0  0  0  0  0  0  0  0  0  0
    5.2620    0.6530   20.3210 C   0  0  0  0  0  0  0  0  0  0  0  0
    4.6810    1.3530   19.2860 C   0  0  0  0  0  0  0  0  0  0  0  0
    5.1640    1.4060   17.9990 C   0  0  0  0  0  0  0  0  0  0  0  0
    6.4040    0.6350   17.7270 N   0  0  0  0  0  0  0  0  0  0  0  0
    6.9310   -0.0400   18.7930 C   0  0  0  0  0  0  0  0  0  0  0  0
   11.5170   -1.1840   22.1480 C   0  0  2  0  0  0  0  0  0  0  0  0
   12.6550   -1.4480   22.6010 C   0  0  2  0  0  0  0  0  0  0  0  0
   12.8630   -1.9990   23.7760 F   0  0  0  0  0  0  0  0  0  0  0  0
   12.6270   -0.0310   22.4170 C   0  0  2  0  0  0  0  0  0  0  0  0
   12.1710    1.0110   23.2630 C   0  0  1  0  0  0  0  0  0  0  0  0
    8.3940    5.8560   22.1720 H   0  0  0  0  0  0  0  0  0  0  0  0
    8.3930    7.3720   23.0910 H   0  0  0  0  0  0  0  0  0  0  0  0
    9.4220    7.2020   21.6440 H   0  0  0  0  0  0  0  0  0  0  0  0
   10.9680    5.3910   21.6870 H   0  0  0  0  0  0  0  0  0  0  0  0
   13.0490    5.4760   23.5390 H   0  0  0  0  0  0  0  0  0  0  0  0
   11.7400    4.6240   24.3630 H   0  0  0  0  0  0  0  0  0  0  0  0
   13.6050    3.3220   22.8760 H   0  0  0  0  0  0  0  0  0  0  0  0
   12.5260    3.7360   21.5800 H   0  0  0  0  0  0  0  0  0  0  0  0
   11.0490    2.2850   22.1070 H   0  0  0  0  0  0  0  0  0  0  0  0
    9.7650    2.5190   23.7060 H   0  0  0  0  0  0  0  0  0  0  0  0
   11.0790    2.7700   24.7970 H   0  0  0  0  0  0  0  0  0  0  0  0
   11.3650    0.3720   25.0600 H   0  0  0  0  0  0  0  0  0  0  0  0
    9.2580    0.6020   23.1740 H   0  0  0  0  0  0  0  0  0  0  0  0
    9.3700   -0.3130   24.5950 H   0  0  0  0  0  0  0  0  0  0  0  0
   10.3680   -2.2010   23.5540 H   0  0  0  0  0  0  0  0  0  0  0  0
    9.4150   -2.2600   21.2440 H   0  0  0  0  0  0  0  0  0  0  0  0
    6.4620   -1.2100   21.8430 H   0  0  0  0  0  0  0  0  0  0  0  0
    4.8360    0.6500   21.3210 H   0  0  0  0  0  0  0  0  0  0  0  0
    3.7620    1.9140   19.4980 H   0  0  0  0  0  0  0  0  0  0  0  0
    4.6980    1.9650   17.1970 H   0  0  0  0  0  0  0  0  0  0  0  0
    7.8410   -0.5940   18.5450 H   0  0  0  0  0  0  0  0  0  0  0  0
   11.4210   -1.6360   21.1550 H   0  0  0  0  0  0  0  0  0  0  0  0
   13.2730   -1.9210   21.8260 H   0  0  0  0  0  0  0  0  0  0  0  0
   13.4130    0.2430   21.7370 H   0  0  0  0  0  0  0  0  0  0  0  0
   13.0130    1.1300   23.9310 H   0  0  0  0  0  0  0  0  0  0  0  0
  1  2  1  0
  2  3  2  0
  2  4  1  0
  4  5  1  0
  5  6  1  0
  6  7  1  0
  7  8  1  0
  8  9  1  0
  9 10  1  0
 10 11  1  0
 11 12  1  0
 12 13  1  0
 13 14  2  0
 13 15  1  0
 15 16  1  0
 16 17  2  0
 17 18  1  0
 18 19  2  0
 19 20  1  0
 16 21  1  0
 20 21  2  0
 11 22  1  0
 22 23  1  0
 23 24  1  0
 22 25  1  0
 23 25  1  0
  7 26  1  0
  9 26  1  0
 25 26  1  0
  1 27  1  0
  1 28  1  0
  1 29  1  0
  4 30  1  0
  5 31  1  0
  5 32  1  0
  6 33  1  0
  6 34  1  0
  7 35  1  6
  8 36  1  0
  8 37  1  0
  9 38  1  1
 10 39  1  0
 10 40  1  0
 11 41  1  1
 12 42  1  0
 15 43  1  0
 17 44  1  0
 18 45  1  0
 19 46  1  0
 21 47  1  0
 22 48  1  6
 23 49  1  6
 25 50  1  6
 26 51  1  1
M  END
