
     RDKit          3D

 55 57  0  0  0  0  0  0  0  0999 V2000
    8.8630    1.1440   21.1550 O   0  0  0  0  0  0  0  0  0  0  0  0
    8.3680   -0.1610   21.5170 C   0  0  0  0  0  0  0  0  0  0  0  0
    9.0420   -0.9200   22.5650 N   0  0  0  0  0  0  0  0  0  0  0  0
   10.4640   -0.5850   22.6250 C   0  0  0  0  0  0  0  0  0  0  0  0
   10.6600    0.7530   22.8910 C   0  0  0  0  0  0  0  0  0  0  0  0
   12.0340    1.3750   22.9990 C   0  0  0  0  0  0  0  0  0  0  0  0
   13.1290    0.3990   22.7980 C   0  0  0  0  0  0  0  0  0  0  0  0
   12.9930   -0.9540   22.5310 C   0  0  0  0  0  0  0  0  0  0  0  0
   11.5510   -1.4310   22.4460 C   0  0  0  0  0  0  0  0  0  0  0  0
    7.2610   -0.8150   20.9860 N   0  0  0  0  0  0  0  0  0  0  0  0
    6.4930   -0.1330   20.0930 C   0  0  0  0  0  0  0  0  0  0  0  0
    6.9630   -0.0690   18.6830 C   0  0  0  0  0  0  0  0  0  0  0  0
    6.2440    0.6140   17.7620 N   0  0  0  0  0  0  0  0  0  0  0  0
    5.0100    1.2820   18.1690 C   0  0  0  0  0  0  0  0  0  0  0  0
    4.5650    1.2100   19.4800 C   0  0  0  0  0  0  0  0  0  0  0  0
    5.2840    0.5070   20.4710 C   0  0  0  0  0  0  0  0  0  0  0  0
    4.8330    0.4340   21.7890 C   0  0  0  0  0  0  0  0  0  0  0  0
    4.7730    1.6310   22.5000 C   0  0  0  0  0  0  0  0  0  0  0  0
    3.5470    2.4060   22.1550 N   0  0  0  0  0  0  0  0  0  0  0  0
    2.6950    2.5330   23.2220 C   0  0  0  0  0  0  0  0  0  0  0  0
    2.4890    1.4290   24.1100 O   0  0  0  0  0  0  0  0  0  0  0  0
    2.0860    3.7290   23.4140 N   0  0  0  0  0  0  0  0  0  0  0  0
    0.7260    3.8220   23.5380 C   0  0  1  0  0  0  0  0  0  0  0  0
   -0.1270    2.7130   23.5950 C   0  0  0  0  0  0  0  0  0  0  0  0
   -1.5020    3.0380   23.5940 C   0  0  0  0  0  0  0  0  0  0  0  0
   -1.7640    4.3730   23.9770 C   0  0  0  0  0  0  0  0  0  0  0  0
   -0.9190    4.9390   25.1140 C   0  0  0  0  0  0  0  0  0  0  0  0
    0.5570    4.5650   24.8740 C   0  0  0  0  0  0  0  0  0  0  0  0
    8.8180   -1.9140   22.5070 H   0  0  0  0  0  0  0  0  0  0  0  0
    9.7840    1.4040   23.0290 H   0  0  0  0  0  0  0  0  0  0  0  0
   12.2080    2.4270   23.2020 H   0  0  0  0  0  0  0  0  0  0  0  0
   14.1370    0.7730   22.8600 H   0  0  0  0  0  0  0  0  0  0  0  0
   13.8310   -1.6260   22.3910 H   0  0  0  0  0  0  0  0  0  0  0  0
   11.4530   -2.4920   22.2340 H   0  0  0  0  0  0  0  0  0  0  0  0
    6.7790   -1.4010   21.6500 H   0  0  0  0  0  0  0  0  0  0  0  0
    7.8930   -0.5750   18.3950 H   0  0  0  0  0  0  0  0  0  0  0  0
    4.4720    1.8260   17.3980 H   0  0  0  0  0  0  0  0  0  0  0  0
    3.6600    1.6690   19.8610 H   0  0  0  0  0  0  0  0  0  0  0  0
    5.6460   -0.0840   22.3500 H   0  0  0  0  0  0  0  0  0  0  0  0
    3.9640   -0.2080   21.8950 H   0  0  0  0  0  0  0  0  0  0  0  0
    4.8170    1.5810   23.5850 H   0  0  0  0  0  0  0  0  0  0  0  0
    5.6130    2.2830   22.2280 H   0  0  0  0  0  0  0  0  0  0  0  0
    3.6880    3.2630   21.6170 H   0  0  0  0  0  0  0  0  0  0  0  0
    2.5570    4.5080   22.9750 H   0  0  0  0  0  0  0  0  0  0  0  0
    0.3920    4.5560   22.8100 H   0  0  0  0  0  0  0  0  0  0  0  0
    0.1190    1.9930   22.8220 H   0  0  0  0  0  0  0  0  0  0  0  0
    0.2700    2.2020   24.4640 H   0  0  0  0  0  0  0  0  0  0  0  0
   -1.9530    2.2250   24.2140 H   0  0  0  0  0  0  0  0  0  0  0  0
   -1.9580    2.8120   22.6300 H   0  0  0  0  0  0  0  0  0  0  0  0
   -2.7880    4.4170   24.3630 H   0  0  0  0  0  0  0  0  0  0  0  0
   -1.8060    4.9790   23.0640 H   0  0  0  0  0  0  0  0  0  0  0  0
   -1.0860    5.9820   25.3600 H   0  0  0  0  0  0  0  0  0  0  0  0
   -1.2330    4.4090   26.0230 H   0  0  0  0  0  0  0  0  0  0  0  0
    0.8010    3.8490   25.6690 H   0  0  0  0  0  0  0  0  0  0  0  0
    1.3550    5.2890   24.9390 H   0  0  0  0  0  0  0  0  0  0  0  0
  1  2  2  0
  2  3  1  0
  3  4  1  0
  4  5  2  0
  5  6  1  0
  6  7  2  0
  7  8  1  0
  4  9  1  0
  8  9  2  0
  2 10  1  0
 10 11  1  0
 11 12  2  0
 12 13  1  0
 13 14  2  0
 14 15  1  0
 11 16  1  0
 15 16  2  0
 16 17  1  0
 17 18  1  0
 18 19  1  0
 19 20  1  0
 20 21  2  0
 20 22  1  0
 22 23  1  0
 23 24  1  0
 24 25  1  0
 25 26  1  0
 26 27  1  0
 23 28  1  0
 27 28  1  0
  3 29  1  0
  5 30  1  0
  6 31  1  0
  7 32  1  0
  8 33  1  0
  9 34  1  0
 10 35  1  0
 12 36  1  0
 14 37  1  0
 15 38  1  0
 17 39  1  0
 17 40  1  0
 18 41  1  0
 18 42  1  0
 19 43  1  0
 22 44  1  0
 23 45  1  6
 24 46  1  0
 24 47  1  0
 25 48  1  0
 25 49  1  0
 26 50  1  0
 26 51  1  0
 27 52  1  0
 27 53  1  0
 28 54  1  0
 28 55  1  0
M  END
