
     RDKit          3D

 36 37  0  0  0  0  0  0  0  0999 V2000
    8.8130    0.2320   27.5690 C   0  0  0  0  0  0  0  0  0  0  0  0
    9.1140   -0.5210   26.3080 C   0  0  0  0  0  0  0  0  0  0  0  0
    9.5020    0.2660   25.2610 N   0  0  0  0  0  0  0  0  0  0  0  0
   10.3820   -0.1900   24.2220 C   0  0  0  0  0  0  0  0  0  0  0  0
   11.8850    0.0440   24.3510 C   0  0  0  0  0  0  0  0  0  0  0  0
   12.7620   -0.4300   23.3010 C   0  0  0  0  0  0  0  0  0  0  0  0
   12.2470   -1.0680   22.2480 C   0  0  0  0  0  0  0  0  0  0  0  0
   13.2500   -1.4680   21.2940 C   0  0  0  0  0  0  0  0  0  0  0  0
   13.9510   -1.6550   20.4860 N   0  0  0  0  0  0  0  0  0  0  0  0
   10.9190   -1.3090   22.0570 C   0  0  0  0  0  0  0  0  0  0  0  0
    9.9530   -0.8470   23.0630 C   0  0  0  0  0  0  0  0  0  0  0  0
    8.6410   -1.0790   22.7770 N   0  0  0  0  0  0  0  0  0  0  0  0
    8.0730   -0.2820   21.6590 C   0  0  0  0  0  0  0  0  0  0  0  0
    8.5710    0.7700   21.2720 O   0  0  0  0  0  0  0  0  0  0  0  0
    6.9450   -0.8200   21.1020 N   0  0  0  0  0  0  0  0  0  0  0  0
    6.3770   -0.1460   20.1270 C   0  0  0  0  0  0  0  0  0  0  0  0
    5.1950    0.5940   20.2860 C   0  0  0  0  0  0  0  0  0  0  0  0
    4.6550    1.2930   19.2160 C   0  0  0  0  0  0  0  0  0  0  0  0
    5.2440    1.2950   17.9730 C   0  0  0  0  0  0  0  0  0  0  0  0
    6.3650    0.6200   17.7220 N   0  0  0  0  0  0  0  0  0  0  0  0
    6.9290   -0.1170   18.8500 C   0  0  0  0  0  0  0  0  0  0  0  0
    8.0940   -0.2990   28.1980 H   0  0  0  0  0  0  0  0  0  0  0  0
    9.7400    0.3540   28.1380 H   0  0  0  0  0  0  0  0  0  0  0  0
    8.4080    1.2120   27.3070 H   0  0  0  0  0  0  0  0  0  0  0  0
    9.9150   -1.2200   26.5320 H   0  0  0  0  0  0  0  0  0  0  0  0
    8.2260   -1.0950   26.0230 H   0  0  0  0  0  0  0  0  0  0  0  0
    9.6130    1.2590   25.4900 H   0  0  0  0  0  0  0  0  0  0  0  0
   12.3370    0.5310   25.1700 H   0  0  0  0  0  0  0  0  0  0  0  0
   13.8270   -0.2670   23.3820 H   0  0  0  0  0  0  0  0  0  0  0  0
   10.5800   -1.8250   21.1680 H   0  0  0  0  0  0  0  0  0  0  0  0
    8.0860   -1.2110   23.6140 H   0  0  0  0  0  0  0  0  0  0  0  0
    6.3250   -1.3000   21.7360 H   0  0  0  0  0  0  0  0  0  0  0  0
    4.7000    0.6200   21.2550 H   0  0  0  0  0  0  0  0  0  0  0  0
    3.7480    1.8880   19.2600 H   0  0  0  0  0  0  0  0  0  0  0  0
    4.7550    1.8770   17.1850 H   0  0  0  0  0  0  0  0  0  0  0  0
    7.8460   -0.6590   18.5970 H   0  0  0  0  0  0  0  0  0  0  0  0
  1  2  1  0
  2  3  1  0
  3  4  1  0
  4  5  2  0
  5  6  1  0
  6  7  2  0
  7  8  1  0
  8  9  3  0
  7 10  1  0
  4 11  1  0
 10 11  2  0
 11 12  1  0
 12 13  1  0
 13 14  2  0
 13 15  1  0
 15 16  1  0
 16 17  2  0
 17 18  1  0
 18 19  2  0
 19 20  1  0
 16 21  1  0
 20 21  2  0
  1 22  1  0
  1 23  1  0
  1 24  1  0
  2 25  1  0
  2 26  1  0
  3 27  1  0
  5 28  1  0
  6 29  1  0
 10 30  1  0
 12 31  1  0
 15 32  1  0
 17 33  1  0
 18 34  1  0
 19 35  1  0
 21 36  1  0
M  END
