LIG
     RDKit          3D

 28 30  0  0  0  0  0  0  0  0999 V2000
    9.2815    0.9055   20.9175 O   0  0  0  0  0  0  0  0  0  0  0  0
    8.7285    0.0520   21.5215 C   0  0  0  0  0  0  0  0  0  0  0  0
    7.4480   -0.4455   21.1220 N   0  0  0  0  0  0  0  0  0  0  0  0
    6.8015    0.1110   19.9810 C   0  0  0  0  0  0  0  0  0  0  0  0
    5.5770    0.7235   20.1915 C   0  0  0  0  0  0  0  0  0  0  0  0
    4.9550    1.2695   19.0860 C   0  0  0  0  0  0  0  0  0  0  0  0
    5.5825    1.1605   17.8540 C   0  0  0  0  0  0  0  0  0  0  0  0
    6.7550    0.5785   17.7185 N   0  0  0  0  0  0  0  0  0  0  0  0
    7.3850    0.0515   18.7330 C   0  0  0  0  0  0  0  0  0  0  0  0
    9.3205   -0.5450   22.7245 N   0  0  0  0  0  0  0  0  0  0  0  0
   10.7205   -0.2680   22.9545 C   0  0  0  0  0  0  0  0  0  0  0  0
   10.9180   -0.0120   24.2225 C   0  0  0  0  0  0  0  0  0  0  0  0
   11.7600    0.8910   24.3310 C   0  0  0  0  0  0  0  0  0  0  0  0
   12.8450    0.2120   24.1630 C   0  0  0  0  0  0  0  0  0  0  0  0
   13.2420   -0.5580   23.0805 C   0  0  0  0  0  0  0  0  0  0  0  0
   11.6120   -0.9085   22.1040 C   0  0  0  0  0  0  0  0  0  0  0  0
   12.8180   -1.7130   22.6470 C   0  0  0  0  0  0  0  0  0  0  0  0
    7.0383   -1.1386   21.6168 H   0  0  0  0  0  0  0  0  0  0  0  0
    5.1179    0.7821   21.1535 H   0  0  0  0  0  0  0  0  0  0  0  0
    3.9965    1.7751   19.1661 H   0  0  0  0  0  0  0  0  0  0  0  0
    5.1248    1.5532   16.9587 H   0  0  0  0  0  0  0  0  0  0  0  0
    8.3223   -0.3981   18.5348 H   0  0  0  0  0  0  0  0  0  0  0  0
    8.8379   -1.0621   23.2959 H   0  0  0  0  0  0  0  0  0  0  0  0
   10.4276   -0.5074   25.0193 H   0  0  0  0  0  0  0  0  0  0  0  0
   11.6666    1.8811   24.5011 H   0  0  0  0  0  0  0  0  0  0  0  0
   13.6600    0.2144   25.0401 H   0  0  0  0  0  0  0  0  0  0  0  0
   12.5453   -2.5837   23.3908 H   0  0  0  0  0  0  0  0  0  0  0  0
   13.4190   -2.3218   21.8384 H   0  0  0  0  0  0  0  0  0  0  0  0
  1  2  2  0
  2  3  1  0
  3  4  1  0
  4  5  4  0
  5  6  4  0
  6  7  4  0
  7  8  4  0
  8  9  4  0
  2 10  1  0
 10 11  1  0
 11 12  4  0
 12 13  4  0
 13 14  4  0
 14 15  4  0
 15 16  4  0
 16 17  1  0
  9  4  4  0
 16 11  4  0
 17 15  1  0
  3 18  1  0
  5 19  1  0
  6 20  1  0
  7 21  1  0
  9 22  1  0
 10 23  1  0
 12 24  1  0
 13 25  1  0
 14 26  1  0
 17 27  1  0
 17 28  1  0
M  END
