LIG
     RDKit          3D

 48 51  0  0  0  0  0  0  0  0999 V2000
    9.5170    1.1180   21.0905 O   0  0  0  0  0  0  0  0  0  0  0  0
    9.1715    0.1780   21.6530 C   0  0  0  0  0  0  0  0  0  0  0  0
    7.2840   -0.6350   20.9180 N   0  0  0  0  0  0  0  0  0  0  0  0
    6.6030    0.0510   19.8530 C   0  0  0  0  0  0  0  0  0  0  0  0
    5.3980    0.6740   20.1340 C   0  0  0  0  0  0  0  0  0  0  0  0
    4.7680    1.3310   19.0890 C   0  0  0  0  0  0  0  0  0  0  0  0
    5.3600    1.2970   17.8310 C   0  0  0  0  0  0  0  0  0  0  0  0
    6.5100    0.7030   17.6230 N   0  0  0  0  0  0  0  0  0  0  0  0
    7.1440    0.0770   18.5790 C   0  0  0  0  0  0  0  0  0  0  0  0
    9.4080   -0.7595   22.5850 N   0  0  0  0  0  0  0  0  0  0  0  0
   10.3595   -1.0920   22.5780 C   0  0  0  0  0  0  0  0  0  0  0  0
   11.6620   -0.7700   22.1120 C   0  0  0  0  0  0  0  0  0  0  0  0
   12.0258   -0.8995   20.7972 C   0  0  0  0  0  0  0  0  0  0  0  0
   11.0381   -1.3389   19.8201 C   0  0  0  0  0  0  0  0  0  0  0  0
   11.7600    0.8910   24.3310 C   0  0  0  0  0  0  0  0  0  0  0  0
    9.7165   -0.0505   23.9290 C   0  0  0  0  0  0  0  0  0  0  0  0
    9.0194   -0.1036   24.4957 C   0  0  0  0  0  0  0  0  0  0  0  0
    8.2760   -1.2314   23.9447 C   0  0  0  0  0  0  0  0  0  0  0  0
    7.0279   -1.6491   24.3982 N   0  0  0  0  0  0  0  0  0  0  0  0
    6.4295   -2.8975   23.8582 C   0  0  0  0  0  0  0  0  0  0  0  0
    4.9735   -3.1355   24.2523 C   0  0  0  0  0  0  0  0  0  0  0  0
    4.7443   -3.4477   25.7328 C   0  0  0  0  0  0  0  0  0  0  0  0
    5.9415   -3.4376   26.4984 O   0  0  0  0  0  0  0  0  0  0  0  0
    6.4528   -2.1295   26.7849 C   0  0  0  0  0  0  0  0  0  0  0  0
    6.3973   -1.1216   25.6246 C   0  0  0  0  0  0  0  0  0  0  0  0
   10.1230   -2.7850   23.1640 C   0  0  0  0  0  0  0  0  0  0  0  0
    7.1742   -1.2173   21.5686 H   0  0  0  0  0  0  0  0  0  0  0  0
    4.9487    0.6706   21.1052 H   0  0  0  0  0  0  0  0  0  0  0  0
    3.8341    1.8629   19.2426 H   0  0  0  0  0  0  0  0  0  0  0  0
    4.8827    1.7655   16.9843 H   0  0  0  0  0  0  0  0  0  0  0  0
    8.0610   -0.3930   18.3321 H   0  0  0  0  0  0  0  0  0  0  0  0
    8.5360   -1.3153   22.6954 H   0  0  0  0  0  0  0  0  0  0  0  0
   12.2392   -1.5028   21.5186 H   0  0  0  0  0  0  0  0  0  0  0  0
   13.0315   -0.6884   20.4481 H   0  0  0  0  0  0  0  0  0  0  0  0
   11.3899   -1.5732   18.8199 H   0  0  0  0  0  0  0  0  0  0  0  0
   12.2672    0.3261   23.7690 H   0  0  0  0  0  0  0  0  0  0  0  0
    8.7700    0.4227   25.4013 H   0  0  0  0  0  0  0  0  0  0  0  0
    6.4556   -2.8487   22.7622 H   0  0  0  0  0  0  0  0  0  0  0  0
    7.0438   -3.7566   24.1558 H   0  0  0  0  0  0  0  0  0  0  0  0
    4.5871   -3.9780   23.6646 H   0  0  0  0  0  0  0  0  0  0  0  0
    4.3521   -2.2809   23.9584 H   0  0  0  0  0  0  0  0  0  0  0  0
    4.3215   -4.4558   25.8189 H   0  0  0  0  0  0  0  0  0  0  0  0
    4.0055   -2.7663   26.1740 H   0  0  0  0  0  0  0  0  0  0  0  0
    5.8970   -1.7283   27.6413 H   0  0  0  0  0  0  0  0  0  0  0  0
    7.4919   -2.2647   27.1078 H   0  0  0  0  0  0  0  0  0  0  0  0
    6.8481   -0.1823   25.9575 H   0  0  0  0  0  0  0  0  0  0  0  0
    5.3586   -0.8520   25.4014 H   0  0  0  0  0  0  0  0  0  0  0  0
    9.6098   -2.8645   24.0239 H   0  0  0  0  0  0  0  0  0  0  0  0
  1  2  2  0
  2  3  1  0
  3  4  1  0
  4  5  4  0
  5  6  4  0
  6  7  4  0
  7  8  4  0
  8  9  4  0
  2 10  1  0
 10 11  1  0
 11 12  1  0
 12 13  2  0
 13 14  1  0
 14 15  2  0
 15 16  1  0
 16 17  2  0
 17 18  1  0
 18 19  1  0
 19 20  1  0
 20 21  1  0
 21 22  1  0
 22 23  1  0
 23 24  1  0
 24 25  1  0
 18 26  2  0
  9  4  4  0
 16 11  1  0
 25 19  1  0
 26 11  1  0
  3 27  1  0
  5 28  1  0
  6 29  1  0
  7 30  1  0
  9 31  1  0
 10 32  1  0
 12 33  1  0
 13 34  1  0
 14 35  1  0
 15 36  1  0
 17 37  1  0
 20 38  1  0
 20 39  1  0
 21 40  1  0
 21 41  1  0
 22 42  1  0
 22 43  1  0
 24 44  1  0
 24 45  1  0
 25 46  1  0
 25 47  1  0
 26 48  1  0
M  END
