LIG
     RDKit          3D

 44 47  0  0  0  0  0  0  0  0999 V2000
    3.8620    2.0560   19.5360 C   0  0  0  0  0  0  0  0  0  0  0  0
    4.8650    1.2840   18.9740 C   0  0  0  0  0  0  0  0  0  0  0  0
    5.4810    1.4205   17.7865 C   0  0  0  0  0  0  0  0  0  0  0  0
    6.5165    0.6450   17.5340 N   0  0  0  0  0  0  0  0  0  0  0  0
    6.7935   -0.1395   18.4870 C   0  0  0  0  0  0  0  0  0  0  0  0
    6.6030    0.0510   19.8530 C   0  0  0  0  0  0  0  0  0  0  0  0
    5.4320    0.3595   19.7185 C   0  0  0  0  0  0  0  0  0  0  0  0
    7.8025   -0.9930   20.8575 N   0  0  0  0  0  0  0  0  0  0  0  0
    8.5920   -0.2080   21.3470 C   0  0  0  0  0  0  0  0  0  0  0  0
    9.1440    0.7090   20.8350 O   0  0  0  0  0  0  0  0  0  0  0  0
    9.2320   -0.9350   22.4160 N   0  0  0  0  0  0  0  0  0  0  0  0
   10.5180   -0.4560   22.8190 C   0  0  0  0  0  0  0  0  0  0  0  0
   11.6620   -0.7700   22.1120 C   0  0  0  0  0  0  0  0  0  0  0  0
   12.8740   -0.2570   22.5320 C   0  0  0  0  0  0  0  0  0  0  0  0
   12.9190    0.5770   23.6360 C   0  0  0  0  0  0  0  0  0  0  0  0
   11.7600    0.8910   24.3310 C   0  0  0  0  0  0  0  0  0  0  0  0
   10.5550    0.3780   23.9180 C   0  0  0  0  0  0  0  0  0  0  0  0
    7.3620   -2.0310   19.9170 N   0  0  0  0  0  0  0  0  0  0  0  0
    6.4780   -3.0650   20.4600 C   0  0  0  0  0  0  0  0  0  0  0  0
    5.7050   -3.6090   19.7340 O   0  0  0  0  0  0  0  0  0  0  0  0
    6.5520   -3.4250   21.8840 N   0  0  0  0  0  0  0  0  0  0  0  0
    5.6750   -4.4640   22.4420 C   0  0  0  0  0  0  0  0  0  0  0  0
    6.3670   -5.4690   23.3670 C   0  0  0  0  0  0  0  0  0  0  0  0
    5.9460   -5.8890   21.9520 C   0  0  0  0  0  0  0  0  0  0  0  0
    7.2860   -1.6460   18.4960 C   0  0  0  0  0  0  0  0  0  0  0  0
    4.2434    2.9347   20.1094 H   0  0  0  0  0  0  0  0  0  0  0  0
    3.9405    2.1235   20.6461 H   0  0  0  0  0  0  0  0  0  0  0  0
    3.2288    1.5014   20.2694 H   0  0  0  0  0  0  0  0  0  0  0  0
    5.2044    2.1189   17.0398 H   0  0  0  0  0  0  0  0  0  0  0  0
    4.6175   -0.2485   20.3768 H   0  0  0  0  0  0  0  0  0  0  0  0
    8.9584   -1.8023   22.5594 H   0  0  0  0  0  0  0  0  0  0  0  0
   11.6315   -1.4007   21.2331 H   0  0  0  0  0  0  0  0  0  0  0  0
   13.7905   -0.5023   21.9986 H   0  0  0  0  0  0  0  0  0  0  0  0
   13.8760    0.9945   23.9649 H   0  0  0  0  0  0  0  0  0  0  0  0
   11.8106    1.5445   25.2011 H   0  0  0  0  0  0  0  0  0  0  0  0
    9.6572    0.6378   24.4690 H   0  0  0  0  0  0  0  0  0  0  0  0
    6.7612   -2.6414   22.4583 H   0  0  0  0  0  0  0  0  0  0  0  0
    4.7069   -4.1684   22.6451 H   0  0  0  0  0  0  0  0  0  0  0  0
    7.4189   -5.3544   23.5470 H   0  0  0  0  0  0  0  0  0  0  0  0
    5.7910   -5.8599   24.1851 H   0  0  0  0  0  0  0  0  0  0  0  0
    6.7223   -6.0263   21.2238 H   0  0  0  0  0  0  0  0  0  0  0  0
    5.0968   -6.5395   21.8587 H   0  0  0  0  0  0  0  0  0  0  0  0
    8.2805   -1.6948   18.0572 H   0  0  0  0  0  0  0  0  0  0  0  0
    6.5695   -2.2471   17.9370 H   0  0  0  0  0  0  0  0  0  0  0  0
  1  2  1  0
  2  3  4  0
  3  4  4  0
  4  5  4  0
  5  6  4  0
  6  7  4  0
  6  8  1  0
  8  9  1  0
  9 10  2  0
  9 11  1  0
 11 12  1  0
 12 13  4  0
 13 14  4  0
 14 15  4  0
 15 16  4  0
 16 17  4  0
  8 18  1  0
 18 19  1  0
 19 20  2  0
 19 21  1  0
 21 22  1  0
 22 23  1  0
 23 24  1  0
 18 25  1  0
  7  2  4  0
 17 12  4  0
 24 22  1  0
 25  5  1  0
  1 26  1  0
  1 27  1  0
  1 28  1  0
  3 29  1  0
  7 30  1  0
 11 31  1  0
 13 32  1  0
 14 33  1  0
 15 34  1  0
 16 35  1  0
 17 36  1  0
 21 37  1  0
 22 38  1  0
 23 39  1  0
 23 40  1  0
 24 41  1  0
 24 42  1  0
 25 43  1  0
 25 44  1  0
M  END
