
     RDKit          3D

 48 51  0  0  0  0  0  0  0  0999 V2000
    8.6590    1.7610   21.2650 O   0  0  0  0  0  0  0  0  0  0  0  0
    8.5960    0.3470   21.4650 C   0  0  0  0  0  0  0  0  0  0  0  0
    7.2730   -0.2760   21.3420 N   0  0  0  0  0  0  0  0  0  0  0  0
    6.6030    0.2420   20.1490 C   0  0  0  0  0  0  0  0  0  0  0  0
    5.5010    1.0550   20.3820 C   0  0  0  0  0  0  0  0  0  0  0  0
    4.6750    1.7170   19.2900 C   0  0  0  0  0  0  0  0  0  0  0  0
    5.1360    1.4360   17.8950 C   0  0  0  0  0  0  0  0  0  0  0  0
    6.3150    0.5490   17.7320 N   0  0  0  0  0  0  0  0  0  0  0  0
    7.0220   -0.0340   18.8550 C   0  0  0  0  0  0  0  0  0  0  0  0
    9.7210   -0.4410   21.6930 N   0  0  0  0  0  0  0  0  0  0  0  0
   10.3410   -0.8380   22.9420 C   0  0  1  0  0  0  0  0  0  0  0  0
   11.7550   -0.9070   22.7460 C   0  0  0  0  0  0  0  0  0  0  0  0
   12.7600    0.3340   22.7330 C   0  0  0  0  0  0  0  0  0  0  0  0
   11.5070    1.2690   22.8810 C   0  0  0  0  0  0  0  0  0  0  0  0
   11.1120    0.2040   23.5060 C   0  0  0  0  0  0  0  0  0  0  0  0
    9.9220   -0.1030   24.0840 C   0  0  0  0  0  0  0  0  0  0  0  0
    8.8580   -1.0110   24.2440 C   0  0  0  0  0  0  0  0  0  0  0  0
    8.7430   -2.2560   23.6210 C   0  0  0  0  0  0  0  0  0  0  0  0
    7.6350   -3.1910   24.0370 N   0  0  0  0  0  0  0  0  0  0  0  0
    7.8470   -4.4390   23.5390 C   0  0  0  0  0  0  0  0  0  0  0  0
    6.6770   -5.0290   22.7500 C   0  0  0  0  0  0  0  0  0  0  0  0
    5.5900   -5.3310   23.5600 C   0  0  0  0  0  0  0  0  0  0  0  0
    5.7400   -4.9280   24.8850 O   0  0  0  0  0  0  0  0  0  0  0  0
    5.6070   -3.5750   25.0860 C   0  0  0  0  0  0  0  0  0  0  0  0
    6.3490   -2.7760   24.1870 C   0  0  0  0  0  0  0  0  0  0  0  0
    9.8020   -2.2770   22.7940 C   0  0  0  0  0  0  0  0  0  0  0  0
    6.7480   -0.1990   22.2170 H   0  0  0  0  0  0  0  0  0  0  0  0
    5.2040    1.2390   21.4250 H   0  0  0  0  0  0  0  0  0  0  0  0
    3.8190    2.3500   19.4990 H   0  0  0  0  0  0  0  0  0  0  0  0
    4.6700    1.8360   17.0070 H   0  0  0  0  0  0  0  0  0  0  0  0
    7.8710   -0.6690   18.6170 H   0  0  0  0  0  0  0  0  0  0  0  0
   10.0360   -0.9930   20.8860 H   0  0  0  0  0  0  0  0  0  0  0  0
   12.1700   -1.9010   22.5960 H   0  0  0  0  0  0  0  0  0  0  0  0
   13.2450   -0.6330   22.5430 H   0  0  0  0  0  0  0  0  0  0  0  0
   12.2240    1.8830   22.3300 H   0  0  0  0  0  0  0  0  0  0  0  0
   11.7710   -0.6420   23.6190 H   0  0  0  0  0  0  0  0  0  0  0  0
    8.0520   -0.7880   24.9860 H   0  0  0  0  0  0  0  0  0  0  0  0
    8.6120   -4.3140   22.7920 H   0  0  0  0  0  0  0  0  0  0  0  0
    8.3090   -5.0390   24.3310 H   0  0  0  0  0  0  0  0  0  0  0  0
    6.9740   -5.9000   22.2120 H   0  0  0  0  0  0  0  0  0  0  0  0
    6.3660   -4.3190   21.9940 H   0  0  0  0  0  0  0  0  0  0  0  0
    5.4320   -6.4000   23.6670 H   0  0  0  0  0  0  0  0  0  0  0  0
    4.6760   -4.8610   23.2160 H   0  0  0  0  0  0  0  0  0  0  0  0
    4.5590   -3.3930   24.8290 H   0  0  0  0  0  0  0  0  0  0  0  0
    5.7280   -3.3900   26.1480 H   0  0  0  0  0  0  0  0  0  0  0  0
    6.3590   -1.7350   24.5320 H   0  0  0  0  0  0  0  0  0  0  0  0
    5.8700   -2.7850   23.2000 H   0  0  0  0  0  0  0  0  0  0  0  0
   10.1810   -3.0550   22.1300 H   0  0  0  0  0  0  0  0  0  0  0  0
  1  2  2  0
  2  3  1  0
  3  4  1  0
  4  5  2  0
  5  6  1  0
  6  7  2  0
  7  8  1  0
  4  9  1  0
  8  9  2  0
  2 10  1  0
 11 10  1  6
 11 12  1  0
 12 13  2  0
 13 14  1  0
 14 15  2  0
 11 16  1  0
 15 16  1  0
 16 17  2  0
 17 18  1  0
 18 19  1  0
 19 20  1  0
 20 21  1  0
 21 22  1  0
 22 23  1  0
 23 24  1  0
 19 25  1  0
 24 25  1  0
 11 26  1  0
 18 26  2  0
  3 27  1  0
  5 28  1  0
  6 29  1  0
  7 30  1  0
  9 31  1  0
 10 32  1  0
 12 33  1  0
 13 34  1  0
 14 35  1  0
 15 36  1  0
 17 37  1  0
 20 38  1  0
 20 39  1  0
 21 40  1  0
 21 41  1  0
 22 42  1  0
 22 43  1  0
 24 44  1  0
 24 45  1  0
 25 46  1  0
 25 47  1  0
 26 48  1  0
M  END
