LIG
     RDKit          3D

 38 40  0  0  0  0  0  0  0  0999 V2000
    9.3520    5.1750   22.9550 N   0  0  0  0  0  0  0  0  0  0  0  0
   10.6680    5.1850   23.9350 S   0  0  0  0  0  6  0  0  0  0  0  0
   10.1890    5.2490   25.2610 O   0  0  0  0  0  0  0  0  0  0  0  0
   11.5530    6.1960   23.4620 O   0  0  0  0  0  0  0  0  0  0  0  0
   11.3350    3.6620   23.6540 C   0  0  0  0  0  0  0  0  0  0  0  0
   12.5830    3.5320   23.0260 C   0  0  0  0  0  0  0  0  0  0  0  0
   13.1480    2.2850   22.7650 C   0  0  0  0  0  0  0  0  0  0  0  0
   12.6870    0.8565   23.3835 C   0  0  0  0  0  0  0  0  0  0  0  0
   13.0685   -0.4360   22.6080 C   0  0  0  0  0  0  0  0  0  0  0  0
   11.6620   -0.7700   22.1120 C   0  0  0  0  0  0  0  0  0  0  0  0
   10.5180   -0.4560   22.8190 C   0  0  0  0  0  0  0  0  0  0  0  0
    9.2320   -0.9350   22.4160 N   0  0  0  0  0  0  0  0  0  0  0  0
    8.5920   -0.2080   21.3470 C   0  0  0  0  0  0  0  0  0  0  0  0
    9.1440    0.7090   20.8350 O   0  0  0  0  0  0  0  0  0  0  0  0
    7.2840   -0.6350   20.9180 N   0  0  0  0  0  0  0  0  0  0  0  0
    6.6030    0.0510   19.8530 C   0  0  0  0  0  0  0  0  0  0  0  0
    5.3980    0.6740   20.1340 C   0  0  0  0  0  0  0  0  0  0  0  0
    4.7680    1.3310   19.0890 C   0  0  0  0  0  0  0  0  0  0  0  0
    5.3600    1.2970   17.8310 C   0  0  0  0  0  0  0  0  0  0  0  0
    6.5100    0.7030   17.6230 N   0  0  0  0  0  0  0  0  0  0  0  0
    7.1440    0.0770   18.5790 C   0  0  0  0  0  0  0  0  0  0  0  0
   10.5550    0.3780   23.9180 C   0  0  0  0  0  0  0  0  0  0  0  0
   11.4870    1.0465   24.0500 C   0  0  0  0  0  0  0  0  0  0  0  0
   10.6670    2.4740   24.0250 C   0  0  0  0  0  0  0  0  0  0  0  0
    9.1614    4.2709   22.5043 H   0  0  0  0  0  0  0  0  0  0  0  0
    8.5255    5.5055   23.4704 H   0  0  0  0  0  0  0  0  0  0  0  0
   13.1397    4.4408   22.7343 H   0  0  0  0  0  0  0  0  0  0  0  0
   14.0079    2.1841   22.0795 H   0  0  0  0  0  0  0  0  0  0  0  0
   13.8248   -0.8418   22.4945 H   0  0  0  0  0  0  0  0  0  0  0  0
   11.6608   -1.2885   21.1539 H   0  0  0  0  0  0  0  0  0  0  0  0
    8.7586   -1.5461   22.9080 H   0  0  0  0  0  0  0  0  0  0  0  0
    6.9484   -1.4664   21.2375 H   0  0  0  0  0  0  0  0  0  0  0  0
    4.9525    0.6600   21.1056 H   0  0  0  0  0  0  0  0  0  0  0  0
    3.8337    1.8636   19.2363 H   0  0  0  0  0  0  0  0  0  0  0  0
    4.8851    1.7644   16.9824 H   0  0  0  0  0  0  0  0  0  0  0  0
    8.0671   -0.3808   18.3213 H   0  0  0  0  0  0  0  0  0  0  0  0
    9.6660    0.3304   24.5861 H   0  0  0  0  0  0  0  0  0  0  0  0
    9.6583    2.3988   24.3025 H   0  0  0  0  0  0  0  0  0  0  0  0
  1  2  1  0
  2  3  2  0
  2  4  2  0
  2  5  1  0
  5  6  4  0
  6  7  4  0
  7  8  4  0
  8  9  4  0
  9 10  4  0
 10 11  4  0
 11 12  1  0
 12 13  1  0
 13 14  2  0
 13 15  1  0
 15 16  1  0
 16 17  4  0
 17 18  4  0
 18 19  4  0
 19 20  4  0
 20 21  4  0
 11 22  4  0
 22 23  4  0
 23 24  4  0
 24  5  4  0
 23  8  4  0
 21 16  4  0
  1 25  1  0
  1 26  1  0
  6 27  1  0
  7 28  1  0
  9 29  1  0
 10 30  1  0
 12 31  1  0
 15 32  1  0
 17 33  1  0
 18 34  1  0
 19 35  1  0
 21 36  1  0
 22 37  1  0
 24 38  1  0
M  END
