
     RDKit          3D

 38 39  0  0  0  0  0  0  0  0999 V2000
   22.6500   15.3990    8.3980 C   0  0  0  0  0  0  0  0  0  0  0  0
   21.5450   15.0280    7.4590 C   0  0  2  0  0  0  0  0  0  0  0  0
   20.8970   13.8300    7.7830 C   0  0  1  0  0  0  0  0  0  0  0  0
   19.5830   13.8450    7.2630 O   0  0  0  0  0  0  0  0  0  0  0  0
   21.4960   12.5270    7.3160 C   0  0  0  0  0  0  0  0  0  0  0  0
   22.6190   12.7610    6.3920 C   0  0  0  0  0  0  0  0  0  0  0  0
   22.8020   13.9270    5.6870 C   0  0  0  0  0  0  0  0  0  0  0  0
   21.9310   15.0480    6.1260 N   0  0  0  0  0  0  0  0  0  0  0  0
   22.7350   16.2230    5.7880 C   0  0  0  0  0  0  0  0  0  0  0  0
   22.0690   17.4620    5.8190 C   0  0  0  0  0  0  0  0  0  0  0  0
   21.3280   17.9730    7.0270 C   0  0  0  0  0  0  0  0  0  0  0  0
   20.6750   19.3350    6.8670 C   0  0  0  0  0  0  0  0  0  0  0  0
   20.7800   20.0320    5.6770 C   0  0  0  0  0  0  0  0  0  0  0  0
   21.4740   19.5190    4.5920 C   0  0  0  0  0  0  0  0  0  0  0  0
   21.5420   20.2850    3.4540 C   0  0  0  0  0  0  0  0  0  0  0  0
   21.8720   21.4130    3.7980 O   0  0  0  0  0  0  0  0  0  0  0  0
   22.0990   18.2660    4.6580 C   0  0  0  0  0  0  0  0  0  0  0  0
   23.5330   14.7710    8.2540 H   0  0  0  0  0  0  0  0  0  0  0  0
   22.9350   16.4390    8.2240 H   0  0  0  0  0  0  0  0  0  0  0  0
   22.2930   15.2820    9.4260 H   0  0  0  0  0  0  0  0  0  0  0  0
   20.7880   15.8070    7.5870 H   0  0  0  0  0  0  0  0  0  0  0  0
   20.7590   13.7640    8.8670 H   0  0  0  0  0  0  0  0  0  0  0  0
   19.0610   14.3590    7.8960 H   0  0  0  0  0  0  0  0  0  0  0  0
   20.7350   11.9510    6.8090 H   0  0  0  0  0  0  0  0  0  0  0  0
   21.8250   11.9140    8.1630 H   0  0  0  0  0  0  0  0  0  0  0  0
   23.5490   12.5960    6.9590 H   0  0  0  0  0  0  0  0  0  0  0  0
   22.6220   11.9460    5.6550 H   0  0  0  0  0  0  0  0  0  0  0  0
   22.6580   13.7580    4.6120 H   0  0  0  0  0  0  0  0  0  0  0  0
   23.8350   14.2300    5.8600 H   0  0  0  0  0  0  0  0  0  0  0  0
   23.6090   16.2890    6.4530 H   0  0  0  0  0  0  0  0  0  0  0  0
   23.1400   16.0860    4.7800 H   0  0  0  0  0  0  0  0  0  0  0  0
   21.2530   17.4180    7.9600 H   0  0  0  0  0  0  0  0  0  0  0  0
   20.1180   19.7680    7.6970 H   0  0  0  0  0  0  0  0  0  0  0  0
   20.3050   21.0110    5.5920 H   0  0  0  0  0  0  0  0  0  0  0  0
   22.2730   19.8830    2.7380 H   0  0  0  0  0  0  0  0  0  0  0  0
   20.5730   20.3310    2.9440 H   0  0  0  0  0  0  0  0  0  0  0  0
   22.0180   21.9170    2.9810 H   0  0  0  0  0  0  0  0  0  0  0  0
   22.6360   17.9030    3.7710 H   0  0  0  0  0  0  0  0  0  0  0  0
  1  2  1  0
  2  3  1  0
  3  4  1  0
  3  5  1  0
  5  6  1  0
  6  7  1  0
  2  8  1  0
  7  8  1  0
  8  9  1  0
  9 10  1  0
 10 11  2  0
 11 12  1  0
 12 13  2  0
 13 14  1  0
 14 15  1  0
 15 16  1  0
 10 17  1  0
 14 17  2  0
  1 18  1  0
  1 19  1  0
  1 20  1  0
  2 21  1  6
  3 22  1  1
  4 23  1  0
  5 24  1  0
  5 25  1  0
  6 26  1  0
  6 27  1  0
  7 28  1  0
  7 29  1  0
  9 30  1  0
  9 31  1  0
 11 32  1  0
 12 33  1  0
 13 34  1  0
 15 35  1  0
 15 36  1  0
 16 37  1  0
 17 38  1  0
M  END
