LIG
     RDKit          3D

 38 39  0  0  0  0  0  0  0  0999 V2000
   22.2960   15.0270    8.4120 C   0  0  0  0  0  0  0  0  0  0  0  0
   20.9580   15.0530    7.2245 C   0  0  2  0  0  0  0  0  0  0  0  0
   20.4075   13.7950    7.6720 C   0  0  1  0  0  0  0  0  0  0  0  0
   19.1090   13.7690    7.3750 O   0  0  0  0  0  0  0  0  0  0  0  0
   20.9590   12.6550    7.1260 C   0  0  0  0  0  0  0  0  0  0  0  0
   22.1230   12.7255    6.3725 C   0  0  0  0  0  0  0  0  0  0  0  0
   22.4305   13.9695    5.7030 C   0  0  0  0  0  0  0  0  0  0  0  0
   21.7285   15.1325    6.0855 N   0  0  0  0  0  0  0  0  0  0  0  0
   22.2960   16.2735    5.6230 C   0  0  0  0  0  0  0  0  0  0  0  0
   21.4545   17.3780    5.4775 C   0  0  0  0  0  0  0  0  0  0  0  0
   21.4060   18.3095    6.4810 C   0  0  0  0  0  0  0  0  0  0  0  0
   20.4640   19.3825    6.3835 C   0  0  0  0  0  0  0  0  0  0  0  0
   20.0365   19.7555    5.1070 C   0  0  0  0  0  0  0  0  0  0  0  0
   20.5340   19.0870    4.0210 C   0  0  0  0  0  0  0  0  0  0  0  0
   21.8270   20.2260    3.9070 C   0  0  0  0  0  0  0  0  0  0  0  0
   21.7060   21.4140    4.5700 O   0  0  0  0  0  0  0  0  0  0  0  0
   21.0980   17.7680    4.1765 C   0  0  0  0  0  0  0  0  0  0  0  0
   22.9990   14.3411    8.0277 H   0  0  0  0  0  0  0  0  0  0  0  0
   23.1434   15.3380    7.8617 H   0  0  0  0  0  0  0  0  0  0  0  0
   22.3636   14.0170    8.7159 H   0  0  0  0  0  0  0  0  0  0  0  0
   20.5391   15.8811    7.5530 H   0  0  0  0  0  0  0  0  0  0  0  0
   20.4439   13.7647    8.7955 H   0  0  0  0  0  0  0  0  0  0  0  0
   18.5730   13.6120    8.1906 H   0  0  0  0  0  0  0  0  0  0  0  0
   20.1639   12.0509    6.5191 H   0  0  0  0  0  0  0  0  0  0  0  0
   21.1059   11.8746    7.9780 H   0  0  0  0  0  0  0  0  0  0  0  0
   23.0320   12.4131    7.0093 H   0  0  0  0  0  0  0  0  0  0  0  0
   22.1480   11.8798    5.5880 H   0  0  0  0  0  0  0  0  0  0  0  0
   22.2980   13.8169    4.5868 H   0  0  0  0  0  0  0  0  0  0  0  0
   23.5517   14.1410    5.7907 H   0  0  0  0  0  0  0  0  0  0  0  0
   23.1342   16.6208    6.3010 H   0  0  0  0  0  0  0  0  0  0  0  0
   22.8596   16.0727    4.6541 H   0  0  0  0  0  0  0  0  0  0  0  0
   22.0482   18.2725    7.3442 H   0  0  0  0  0  0  0  0  0  0  0  0
   20.1117   19.8671    7.2611 H   0  0  0  0  0  0  0  0  0  0  0  0
   19.3210   20.5600    5.0079 H   0  0  0  0  0  0  0  0  0  0  0  0
   22.7252   19.6597    4.2463 H   0  0  0  0  0  0  0  0  0  0  0  0
   21.9483   20.3588    2.8044 H   0  0  0  0  0  0  0  0  0  0  0  0
   22.4682   21.9786    4.3271 H   0  0  0  0  0  0  0  0  0  0  0  0
   21.2275   17.1398    3.3420 H   0  0  0  0  0  0  0  0  0  0  0  0
  1  2  1  0
  2  3  1  0
  3  4  1  0
  3  5  1  0
  5  6  1  0
  6  7  1  0
  7  8  1  0
  8  9  1  0
  9 10  1  0
 10 11  4  0
 11 12  4  0
 12 13  4  0
 13 14  4  0
 14 15  1  0
 15 16  1  0
 14 17  4  0
  8  2  1  0
 17 10  4  0
  1 18  1  0
  1 19  1  0
  1 20  1  0
  2 21  1  1
  3 22  1  1
  4 23  1  0
  5 24  1  0
  5 25  1  0
  6 26  1  0
  6 27  1  0
  7 28  1  0
  7 29  1  0
  9 30  1  0
  9 31  1  0
 11 32  1  0
 12 33  1  0
 13 34  1  0
 15 35  1  0
 15 36  1  0
 16 37  1  0
 17 38  1  0
M  END
