LIG
     RDKit          3D

 53 56  0  0  0  0  0  0  0  0999 V2000
   22.2960   15.0270    8.4120 C   0  0  0  0  0  0  0  0  0  0  0  0
   21.1830   14.9300    7.3700 C   0  0  2  0  0  0  0  0  0  0  0  0
   20.4760   13.5870    7.6210 C   0  0  1  0  0  0  0  0  0  0  0  0
   19.1090   13.7690    7.3750 O   0  0  0  0  0  0  0  0  0  0  0  0
   20.9620   12.4860    6.8250 C   0  0  0  0  0  0  0  0  0  0  0  0
   22.2710   12.6520    6.2520 C   0  0  0  0  0  0  0  0  0  0  0  0
   23.0300   14.1660    4.8800 C   0  0  0  0  0  0  0  0  0  0  0  0
   24.7080   14.1770    4.8830 N   0  0  0  0  0  0  0  0  0  0  0  0
   25.3080   13.0370    4.4400 C   0  0  0  0  0  0  0  0  0  0  0  0
   26.5260   12.3790    4.7950 C   0  0  0  0  0  0  0  0  0  0  0  0
   26.8850   11.1950    4.1560 C   0  0  0  0  0  0  0  0  0  0  0  0
   26.0620   10.6550    3.1630 C   0  0  0  0  0  0  0  0  0  0  0  0
   24.8780   11.3000    2.8170 C   0  0  0  0  0  0  0  0  0  0  0  0
   24.5030   12.5070    3.4760 C   0  0  0  0  0  0  0  0  0  0  0  0
   23.4360   13.3390    3.3580 N   0  0  0  0  0  0  0  0  0  0  0  0
   22.1855   15.2860    5.2220 N   0  0  0  0  0  0  0  0  0  0  0  0
   22.7175   16.3540    5.5585 C   0  0  0  0  0  0  0  0  0  0  0  0
   21.8300   17.5680    5.3470 C   0  0  0  0  0  0  0  0  0  0  0  0
   21.3320   18.2675    6.4040 C   0  0  0  0  0  0  0  0  0  0  0  0
   20.5385   19.3795    6.1740 C   0  0  0  0  0  0  0  0  0  0  0  0
   20.2605   19.7905    4.8925 C   0  0  0  0  0  0  0  0  0  0  0  0
   20.7615   19.0945    3.8390 C   0  0  0  0  0  0  0  0  0  0  0  0
   21.5550   17.9855    4.0680 C   0  0  0  0  0  0  0  0  0  0  0  0
   22.6250   17.8150    2.8220 O   0  0  0  0  0  0  0  0  0  0  0  0
   22.1663   14.2539    9.1816 H   0  0  0  0  0  0  0  0  0  0  0  0
   22.8940   14.1038    8.4396 H   0  0  0  0  0  0  0  0  0  0  0  0
   23.2984   14.8959    7.9880 H   0  0  0  0  0  0  0  0  0  0  0  0
   20.6597   15.8102    7.3248 H   0  0  0  0  0  0  0  0  0  0  0  0
   20.5458   13.3319    8.7197 H   0  0  0  0  0  0  0  0  0  0  0  0
   18.9728   14.6904    7.0805 H   0  0  0  0  0  0  0  0  0  0  0  0
   20.2175   12.2192    5.9978 H   0  0  0  0  0  0  0  0  0  0  0  0
   20.9502   11.5257    7.4447 H   0  0  0  0  0  0  0  0  0  0  0  0
   23.1641   12.7295    6.9960 H   0  0  0  0  0  0  0  0  0  0  0  0
   22.6774   11.7563    5.6270 H   0  0  0  0  0  0  0  0  0  0  0  0
   24.8032   14.9683    4.1937 H   0  0  0  0  0  0  0  0  0  0  0  0
   24.5823   12.2682    5.4545 H   0  0  0  0  0  0  0  0  0  0  0  0
   27.4095   13.1350    4.7151 H   0  0  0  0  0  0  0  0  0  0  0  0
   26.5501   12.2296    5.9508 H   0  0  0  0  0  0  0  0  0  0  0  0
   27.9634   11.2997    3.7459 H   0  0  0  0  0  0  0  0  0  0  0  0
   27.0825   10.3777    4.9516 H   0  0  0  0  0  0  0  0  0  0  0  0
   26.6868   10.4667    2.2082 H   0  0  0  0  0  0  0  0  0  0  0  0
   25.8243    9.5581    3.4358 H   0  0  0  0  0  0  0  0  0  0  0  0
   24.8621   11.4709    1.6627 H   0  0  0  0  0  0  0  0  0  0  0  0
   23.9873   10.5480    2.8756 H   0  0  0  0  0  0  0  0  0  0  0  0
   23.7951   11.7411    4.5149 H   0  0  0  0  0  0  0  0  0  0  0  0
   22.5147   12.9421    3.1222 H   0  0  0  0  0  0  0  0  0  0  0  0
   23.7107   16.6238    5.0833 H   0  0  0  0  0  0  0  0  0  0  0  0
   22.9925   16.4579    6.6513 H   0  0  0  0  0  0  0  0  0  0  0  0
   21.5423   17.9736    7.4380 H   0  0  0  0  0  0  0  0  0  0  0  0
   20.1357   19.9324    7.0343 H   0  0  0  0  0  0  0  0  0  0  0  0
   19.6393   20.6815    4.7264 H   0  0  0  0  0  0  0  0  0  0  0  0
   20.5296   19.4230    2.8158 H   0  0  0  0  0  0  0  0  0  0  0  0
   23.0306   17.0061    3.0616 H   0  0  0  0  0  0  0  0  0  0  0  0
  1  2  1  0
  2  3  1  0
  3  4  1  0
  3  5  1  0
  5  6  1  0
  6  7  1  0
  7  8  1  0
  8  9  1  0
  9 10  1  0
 10 11  1  0
 11 12  1  0
 12 13  1  0
 13 14  1  0
 14 15  1  0
  7 16  1  0
 16 17  1  0
 17 18  1  0
 18 19  4  0
 19 20  4  0
 20 21  4  0
 21 22  4  0
 22 23  4  0
 23 24  1  0
 16  2  1  0
 23 18  4  0
 15  7  1  0
 14  9  1  0
  1 25  1  0
  1 26  1  0
  1 27  1  0
  2 28  1  1
  3 29  1  1
  4 30  1  0
  5 31  1  0
  5 32  1  0
  6 33  1  0
  6 34  1  0
  8 35  1  0
  9 36  1  0
 10 37  1  0
 10 38  1  0
 11 39  1  0
 11 40  1  0
 12 41  1  0
 12 42  1  0
 13 43  1  0
 13 44  1  0
 14 45  1  0
 15 46  1  0
 17 47  1  0
 17 48  1  0
 19 49  1  0
 20 50  1  0
 21 51  1  0
 22 52  1  0
 24 53  1  0
M  END
