
     RDKit          3D

 46 47  0  0  0  0  0  0  0  0999 V2000
    9.8300   -0.6330   22.4830 C   0  0  0  0  0  0  0  0  0  0  0  0
    8.8750    0.0740   21.5580 C   0  0  0  0  0  0  0  0  0  0  0  0
    9.0380    1.2670   21.2370 O   0  0  0  0  0  0  0  0  0  0  0  0
    7.8190   -0.7130   21.1220 N   0  0  0  0  0  0  0  0  0  0  0  0
    6.8110   -0.1390   20.2510 C   0  0  0  0  0  0  0  0  0  0  0  0
    7.1210   -0.1870   18.7730 C   0  0  0  0  0  0  0  0  0  0  0  0
    6.1700    0.3970   17.8350 N   0  0  0  0  0  0  0  0  0  0  0  0
    4.9330    1.0110   18.3190 C   0  0  0  0  0  0  0  0  0  0  0  0
    4.6490    1.0330   19.6690 C   0  0  0  0  0  0  0  0  0  0  0  0
    5.6120    0.4390   20.6810 C   0  0  0  0  0  0  0  0  0  0  0  0
    5.1640    0.5410   22.0130 C   0  0  0  0  0  0  0  0  0  0  0  0
    5.1440    1.8750   22.7160 C   0  0  0  0  0  0  0  0  0  0  0  0
    3.9770    2.6080   22.5780 N   0  0  0  0  0  0  0  0  0  0  0  0
    2.7110    2.4520   23.3490 C   0  0  0  0  0  0  0  0  0  0  0  0
    2.6010    1.7030   24.3240 O   0  0  0  0  0  0  0  0  0  0  0  0
    1.7300    3.2530   22.7960 N   0  0  0  0  0  0  0  0  0  0  0  0
    0.6360    3.7120   23.3980 C   0  0  2  0  0  0  0  0  0  0  0  0
    0.6300    4.3760   24.6200 C   0  0  0  0  0  0  0  0  0  0  0  0
   -0.6050    4.7910   25.1140 C   0  0  0  0  0  0  0  0  0  0  0  0
   -1.7060    4.5170   24.2940 C   0  0  0  0  0  0  0  0  0  0  0  0
   -1.7480    3.1880   23.8080 C   0  0  0  0  0  0  0  0  0  0  0  0
   -0.3730    2.7590   23.2840 C   0  0  0  0  0  0  0  0  0  0  0  0
   10.6230    0.0340   22.8310 H   0  0  0  0  0  0  0  0  0  0  0  0
   10.2950   -1.4650   21.9430 H   0  0  0  0  0  0  0  0  0  0  0  0
    9.2770   -1.0120   23.3470 H   0  0  0  0  0  0  0  0  0  0  0  0
    7.9390   -1.7190   21.1050 H   0  0  0  0  0  0  0  0  0  0  0  0
    8.0120   -0.6260   18.3410 H   0  0  0  0  0  0  0  0  0  0  0  0
    4.3330    1.4060   17.5220 H   0  0  0  0  0  0  0  0  0  0  0  0
    3.7170    1.4870   20.0210 H   0  0  0  0  0  0  0  0  0  0  0  0
    4.1140    0.2230   21.9930 H   0  0  0  0  0  0  0  0  0  0  0  0
    5.7090   -0.2460   22.5390 H   0  0  0  0  0  0  0  0  0  0  0  0
    5.3150    1.7060   23.7850 H   0  0  0  0  0  0  0  0  0  0  0  0
    5.9880    2.4770   22.3540 H   0  0  0  0  0  0  0  0  0  0  0  0
    4.0270    3.3590   21.8910 H   0  0  0  0  0  0  0  0  0  0  0  0
    2.0260    3.7490   21.9680 H   0  0  0  0  0  0  0  0  0  0  0  0
    0.3300    4.5030   22.7080 H   0  0  0  0  0  0  0  0  0  0  0  0
    1.2440    5.2750   24.5300 H   0  0  0  0  0  0  0  0  0  0  0  0
    1.0760    3.7020   25.3600 H   0  0  0  0  0  0  0  0  0  0  0  0
   -0.6150    5.8050   25.5160 H   0  0  0  0  0  0  0  0  0  0  0  0
   -0.7710    4.1870   26.0160 H   0  0  0  0  0  0  0  0  0  0  0  0
   -1.5390    5.1290   23.3970 H   0  0  0  0  0  0  0  0  0  0  0  0
   -2.6470    4.9150   24.6640 H   0  0  0  0  0  0  0  0  0  0  0  0
   -2.0980    2.3970   24.4810 H   0  0  0  0  0  0  0  0  0  0  0  0
   -2.4520    3.1680   22.9690 H   0  0  0  0  0  0  0  0  0  0  0  0
   -0.3070    2.3780   22.2700 H   0  0  0  0  0  0  0  0  0  0  0  0
   -0.0780    1.8960   23.8910 H   0  0  0  0  0  0  0  0  0  0  0  0
  1  2  1  0
  2  3  2  0
  2  4  1  0
  4  5  1  0
  5  6  2  0
  6  7  1  0
  7  8  2  0
  8  9  1  0
  5 10  1  0
  9 10  2  0
 10 11  1  0
 11 12  1  0
 12 13  1  0
 13 14  1  0
 14 15  2  0
 14 16  1  0
 16 17  1  0
 17 18  1  0
 18 19  1  0
 19 20  1  0
 20 21  1  0
 17 22  1  0
 21 22  1  0
  1 23  1  0
  1 24  1  0
  1 25  1  0
  4 26  1  0
  6 27  1  0
  8 28  1  0
  9 29  1  0
 11 30  1  0
 11 31  1  0
 12 32  1  0
 12 33  1  0
 13 34  1  0
 16 35  1  0
 17 36  1  6
 18 37  1  0
 18 38  1  0
 19 39  1  0
 19 40  1  0
 20 41  1  0
 20 42  1  0
 21 43  1  0
 21 44  1  0
 22 45  1  0
 22 46  1  0
M  END
