LIG
     RDKit          3D

 62 65  0  0  0  0  0  0  0  0999 V2000
   13.7290   -1.2710   23.6040 C   0  0  0  0  0  0  0  0  0  0  0  0
   12.3210   -0.8940   23.7180 N   0  0  0  0  0  0  0  0  0  0  0  0
   11.4670   -1.8380   22.9920 C   0  0  0  0  0  0  0  0  0  0  0  0
   10.0140   -1.4540   23.1290 C   0  0  0  0  0  0  0  0  0  0  0  0
    9.8260   -0.0960   22.6220 N   0  0  0  0  0  0  0  0  0  0  0  0
    9.0660    0.2300   21.5610 C   0  0  0  0  0  0  0  0  0  0  0  0
    8.9960    1.3830   21.1430 O   0  0  0  0  0  0  0  0  0  0  0  0
    8.3080   -0.8880   20.8630 C   0  0  0  0  0  0  0  0  0  0  0  0
    7.4330   -0.3020   19.8060 C   0  0  0  0  0  0  0  0  0  0  0  0
    7.2030   -0.2825   18.4640 C   0  0  0  0  0  0  0  0  0  0  0  0
    6.3815    0.4565   17.7320 N   0  0  0  0  0  0  0  0  0  0  0  0
    5.7600    0.8140   18.7420 C   0  0  0  0  0  0  0  0  0  0  0  0
    4.8685    1.4185   18.2805 N   0  0  0  0  0  0  0  0  0  0  0  0
    4.2975    1.5770   19.4850 C   0  0  0  0  0  0  0  0  0  0  0  0
    4.6025    0.9395   21.3115 C   0  0  0  0  0  0  0  0  0  0  0  0
    5.2050    1.5540   22.5490 C   0  0  0  0  0  0  0  0  0  0  0  0
    4.0700    2.4460   22.4650 N   0  0  0  0  0  0  0  0  0  0  0  0
    2.9270    2.3110   23.3520 C   0  0  0  0  0  0  0  0  0  0  0  0
    2.8920    1.4710   24.2020 O   0  0  0  0  0  0  0  0  0  0  0  0
    1.8460    3.2530   23.1370 N   0  0  0  0  0  0  0  0  0  0  0  0
    0.6480    3.2940   23.9490 C   0  0  0  0  0  0  0  0  0  0  0  0
    0.5370    4.7360   24.4510 C   0  0  0  0  0  0  0  0  0  0  0  0
   -0.7860    4.9880   25.1580 C   0  0  0  0  0  0  0  0  0  0  0  0
   -1.9540    4.6680   24.2350 C   0  0  0  0  0  0  0  0  0  0  0  0
   -1.8960    3.2340   23.7250 C   0  0  0  0  0  0  0  0  0  0  0  0
   -0.5430    2.8790   23.0980 C   0  0  0  0  0  0  0  0  0  0  0  0
    5.3915    0.6325   20.6910 C   0  0  0  0  0  0  0  0  0  0  0  0
    6.3030    0.0485   19.9075 C   0  0  0  0  0  0  0  0  0  0  0  0
   10.6540    0.8680   23.3430 C   0  0  0  0  0  0  0  0  0  0  0  0
   12.1050    0.4690   23.2230 C   0  0  0  0  0  0  0  0  0  0  0  0
   14.0920   -1.0936   22.5840 H   0  0  0  0  0  0  0  0  0  0  0  0
   14.3394   -0.3979   23.3461 H   0  0  0  0  0  0  0  0  0  0  0  0
   14.3637   -0.7122   24.3012 H   0  0  0  0  0  0  0  0  0  0  0  0
   11.5962   -2.8504   23.3841 H   0  0  0  0  0  0  0  0  0  0  0  0
   11.7536   -1.8392   21.9398 H   0  0  0  0  0  0  0  0  0  0  0  0
    9.7025   -1.5081   24.1715 H   0  0  0  0  0  0  0  0  0  0  0  0
    9.3712   -2.1121   22.5431 H   0  0  0  0  0  0  0  0  0  0  0  0
    7.7138   -1.4111   21.6010 H   0  0  0  0  0  0  0  0  0  0  0  0
    8.9932   -1.5756   20.3877 H   0  0  0  0  0  0  0  0  0  0  0  0
    7.8491   -1.0574   17.7295 H   0  0  0  0  0  0  0  0  0  0  0  0
    6.3263    0.6359   16.8165 H   0  0  0  0  0  0  0  0  0  0  0  0
    3.4031    2.2338   19.5983 H   0  0  0  0  0  0  0  0  0  0  0  0
    5.0603    0.9533   23.3390 H   0  0  0  0  0  0  0  0  0  0  0  0
    6.0654    2.0026   22.3431 H   0  0  0  0  0  0  0  0  0  0  0  0
    4.2220    3.3869   22.1554 H   0  0  0  0  0  0  0  0  0  0  0  0
    1.7742    3.5313   22.1561 H   0  0  0  0  0  0  0  0  0  0  0  0
    0.5432    4.4151   22.5164 H   0  0  0  0  0  0  0  0  0  0  0  0
    0.6114    5.4146   23.5918 H   0  0  0  0  0  0  0  0  0  0  0  0
    1.3654    4.9826   25.1227 H   0  0  0  0  0  0  0  0  0  0  0  0
   -0.8421    6.0343   25.4694 H   0  0  0  0  0  0  0  0  0  0  0  0
   -0.8547    4.3743   26.0622 H   0  0  0  0  0  0  0  0  0  0  0  0
   -2.9044    4.8326   24.7631 H   0  0  0  0  0  0  0  0  0  0  0  0
   -1.9463    5.3627   23.3810 H   0  0  0  0  0  0  0  0  0  0  0  0
   -2.6915    3.0766   22.9792 H   0  0  0  0  0  0  0  0  0  0  0  0
   -2.1138    2.5382   24.5526 H   0  0  0  0  0  0  0  0  0  0  0  0
   -0.4749    3.3849   22.1213 H   0  0  0  0  0  0  0  0  0  0  0  0
   -0.5170    1.7990   22.8908 H   0  0  0  0  0  0  0  0  0  0  0  0
    6.0786    1.9637   20.5619 H   0  0  0  0  0  0  0  0  0  0  0  0
   10.4979    1.8587   22.9348 H   0  0  0  0  0  0  0  0  0  0  0  0
   10.3316    0.8495   24.3805 H   0  0  0  0  0  0  0  0  0  0  0  0
   12.3744    0.4620   22.1730 H   0  0  0  0  0  0  0  0  0  0  0  0
   12.7441    1.1839   23.7196 H   0  0  0  0  0  0  0  0  0  0  0  0
  1  2  1  0
  2  3  1  0
  3  4  1  0
  4  5  1  0
  5  6  1  0
  6  7  2  0
  6  8  1  0
  8  9  1  0
  9 10  4  0
 10 11  4  0
 11 12  4  0
 12 13  4  0
 13 14  4  0
 14 15  4  0
 15 16  1  0
 16 17  1  0
 17 18  1  0
 18 19  2  0
 18 20  1  0
 20 21  1  0
 21 22  1  0
 22 23  1  0
 23 24  1  0
 24 25  1  0
 25 26  1  0
 15 27  4  0
 27 28  4  0
  5 29  1  0
 29 30  1  0
 30  2  1  0
 28  9  4  0
 28 12  4  0
 26 21  1  0
  1 31  1  0
  1 32  1  0
  1 33  1  0
  3 34  1  0
  3 35  1  0
  4 36  1  0
  4 37  1  0
  8 38  1  0
  8 39  1  0
 10 40  1  0
 11 41  1  0
 14 42  1  0
 16 43  1  0
 16 44  1  0
 17 45  1  0
 20 46  1  0
 21 47  1  0
 22 48  1  0
 22 49  1  0
 23 50  1  0
 23 51  1  0
 24 52  1  0
 24 53  1  0
 25 54  1  0
 25 55  1  0
 26 56  1  0
 26 57  1  0
 27 58  1  0
 29 59  1  0
 29 60  1  0
 30 61  1  0
 30 62  1  0
M  END
