
     RDKit          3D

 57 58  0  0  0  0  0  0  0  0999 V2000
    7.3800    5.0340   22.2980 C   0  0  0  0  0  0  0  0  0  0  0  0
    6.8930    3.8420   23.0760 C   0  0  0  0  0  0  0  0  0  0  0  0
    5.9370    3.8890   23.8330 O   0  0  0  0  0  0  0  0  0  0  0  0
    7.6210    2.7140   22.8620 N   0  0  0  0  0  0  0  0  0  0  0  0
    7.0850    1.3810   23.0650 C   0  0  2  0  0  0  0  0  0  0  0  0
    8.2740    0.5400   22.4630 C   0  0  0  0  0  0  0  0  0  0  0  0
    9.0450    1.0570   21.6430 O   0  0  0  0  0  0  0  0  0  0  0  0
    8.4810   -0.8480   22.9260 N   0  0  0  0  0  0  0  0  0  0  0  0
    9.6040   -1.6070   22.3060 C   0  0  0  0  0  0  0  0  0  0  0  0
   10.7980   -0.9790   22.6370 C   0  0  0  0  0  0  0  0  0  0  0  0
   11.9930   -1.8740   22.3500 C   0  0  0  0  0  0  0  0  0  0  0  0
   13.1460   -2.1720   24.1020 Br  0  0  0  0  0  0  0  0  0  0  0  0
    5.7060    1.1440   22.6230 C   0  0  1  0  0  0  0  0  0  0  0  0
    4.7510    2.2200   22.6210 N   0  0  0  0  0  0  0  0  0  0  0  0
    3.5040    2.2250   23.3310 C   0  0  0  0  0  0  0  0  0  0  0  0
    3.2510    1.4370   24.5020 O   0  0  0  0  0  0  0  0  0  0  0  0
    2.5020    3.1050   22.7700 N   0  0  0  0  0  0  0  0  0  0  0  0
    1.2360    3.6670   23.2800 C   0  0  2  0  0  0  0  0  0  0  0  0
    1.1820    4.2420   24.5480 C   0  0  0  0  0  0  0  0  0  0  0  0
   -0.0980    4.6780   24.9480 C   0  0  0  0  0  0  0  0  0  0  0  0
   -1.2020    4.4890   24.1160 C   0  0  0  0  0  0  0  0  0  0  0  0
   -1.2100    3.3180   23.3520 C   0  0  0  0  0  0  0  0  0  0  0  0
    0.0520    2.6720   23.2320 C   0  0  0  0  0  0  0  0  0  0  0  0
    5.8880    0.6700   21.1430 C   0  0  0  0  0  0  0  0  0  0  0  0
    6.5840   -0.3780   20.5100 C   0  0  0  0  0  0  0  0  0  0  0  0
    6.1430    0.0470   19.0600 C   0  0  0  0  0  0  0  0  0  0  0  0
    5.2890    1.1390   18.3660 C   0  0  0  0  0  0  0  0  0  0  0  0
    5.1480    1.1950   17.1720 O   0  0  0  0  0  0  0  0  0  0  0  0
    4.6860    2.0880   19.3320 C   0  0  0  0  0  0  0  0  0  0  0  0
    5.4610    1.0960   19.9390 C   0  0  0  0  0  0  0  0  0  0  0  0
    7.2770    5.9590   22.8690 H   0  0  0  0  0  0  0  0  0  0  0  0
    6.7930    5.1310   21.3810 H   0  0  0  0  0  0  0  0  0  0  0  0
    8.4340    4.8880   22.0470 H   0  0  0  0  0  0  0  0  0  0  0  0
    8.6180    2.8020   22.7280 H   0  0  0  0  0  0  0  0  0  0  0  0
    7.1160    1.2310   24.1510 H   0  0  0  0  0  0  0  0  0  0  0  0
    8.2850   -1.0290   23.8980 H   0  0  0  0  0  0  0  0  0  0  0  0
    9.3770   -1.6950   21.2460 H   0  0  0  0  0  0  0  0  0  0  0  0
    9.4850   -2.6380   22.6360 H   0  0  0  0  0  0  0  0  0  0  0  0
    5.1840    0.3140   23.1030 H   0  0  0  0  0  0  0  0  0  0  0  0
    5.0910    3.1540   22.4300 H   0  0  0  0  0  0  0  0  0  0  0  0
    2.7260    3.4230   21.8390 H   0  0  0  0  0  0  0  0  0  0  0  0
    1.0000    4.3880   22.5020 H   0  0  0  0  0  0  0  0  0  0  0  0
    1.9780    4.9830   24.6300 H   0  0  0  0  0  0  0  0  0  0  0  0
    1.4280    3.4550   25.2660 H   0  0  0  0  0  0  0  0  0  0  0  0
   -0.3450    4.1730   25.8840 H   0  0  0  0  0  0  0  0  0  0  0  0
   -0.0200    5.7560   25.1340 H   0  0  0  0  0  0  0  0  0  0  0  0
   -2.1620    4.6880   24.5930 H   0  0  0  0  0  0  0  0  0  0  0  0
   -1.1430    5.2990   23.3780 H   0  0  0  0  0  0  0  0  0  0  0  0
   -1.4380    3.6570   22.3320 H   0  0  0  0  0  0  0  0  0  0  0  0
   -2.0520    2.6650   23.5610 H   0  0  0  0  0  0  0  0  0  0  0  0
    0.2140    2.0110   22.3730 H   0  0  0  0  0  0  0  0  0  0  0  0
    0.1530    2.0220   24.1060 H   0  0  0  0  0  0  0  0  0  0  0  0
    6.9460   -0.9910   19.6750 H   0  0  0  0  0  0  0  0  0  0  0  0
    6.5680   -0.6340   18.3050 H   0  0  0  0  0  0  0  0  0  0  0  0
    4.2800    1.6130   16.9690 H   0  0  0  0  0  0  0  0  0  0  0  0
    4.0690    2.9620   19.4910 H   0  0  0  0  0  0  0  0  0  0  0  0
    5.9160    0.3760   19.2850 H   0  0  0  0  0  0  0  0  0  0  0  0
  1  2  1  0
  2  3  2  0
  2  4  1  0
  4  5  1  0
  5  6  1  0
  6  7  2  0
  6  8  1  0
  8  9  1  0
  9 10  1  0
 10 11  3  0
 11 12  1  0
  5 13  1  0
 13 14  1  0
 14 15  1  0
 15 16  2  0
 15 17  1  0
 17 18  1  0
 18 19  1  0
 19 20  1  0
 20 21  1  0
 21 22  1  0
 18 23  1  0
 22 23  1  0
 13 24  1  0
 24 25  2  0
 25 26  1  0
 26 27  2  0
 27 28  1  0
 27 29  1  0
 24 30  1  0
 29 30  2  0
  1 31  1  0
  1 32  1  0
  1 33  1  0
  4 34  1  0
  5 35  1  1
  8 36  1  0
  9 37  1  0
  9 38  1  0
 13 39  1  1
 14 40  1  0
 17 41  1  0
 18 42  1  6
 19 43  1  0
 19 44  1  0
 20 45  1  0
 20 46  1  0
 21 47  1  0
 21 48  1  0
 22 49  1  0
 22 50  1  0
 23 51  1  0
 23 52  1  0
 25 53  1  0
 26 54  1  0
 28 55  1  0
 29 56  1  0
 30 57  1  0
M  END
