
     RDKit          3D

 63 66  0  0  0  0  0  0  0  0999 V2000
    9.4220    1.2920   21.1330 O   0  0  0  0  0  0  0  0  0  0  0  0
    8.8450    0.0250   21.4800 C   0  0  0  0  0  0  0  0  0  0  0  0
    9.4290   -0.6920   22.6920 C   0  0  0  0  0  0  0  0  0  0  0  0
   10.7930   -0.4890   23.0090 C   0  0  1  0  0  0  0  0  0  0  0  0
   11.2520   -1.0570   24.3440 C   0  0  0  0  0  0  0  0  0  0  0  0
   12.7190   -0.7770   24.4400 C   0  0  0  0  0  0  0  0  0  0  0  0
   13.5290   -1.1440   23.3810 C   0  0  0  0  0  0  0  0  0  0  0  0
   12.5970   -1.8760   22.4260 C   0  0  0  0  0  0  0  0  0  0  0  0
   11.7000   -0.8560   22.0290 C   0  0  0  0  0  0  0  0  0  0  0  0
    7.7220   -0.5870   20.7200 N   0  0  0  0  0  0  0  0  0  0  0  0
    6.8360    0.4450   20.3240 C   0  0  1  0  0  0  0  0  0  0  0  0
    7.5820    1.5930   19.9870 C   0  0  0  0  0  0  0  0  0  0  0  0
    6.9160    1.0450   18.8210 C   0  0  0  0  0  0  0  0  0  0  0  0
    5.9460    0.1560   18.6010 N   0  0  0  0  0  0  0  0  0  0  0  0
    5.0890   -0.6280   18.4060 C   0  0  0  0  0  0  0  0  0  0  0  0
    4.5260   -0.4620   19.6270 C   0  0  0  0  0  0  0  0  0  0  0  0
    5.4120    0.1300   20.6050 C   0  0  0  0  0  0  0  0  0  0  0  0
    4.8830    0.3350   21.9080 C   0  0  0  0  0  0  0  0  0  0  0  0
    5.0250    1.7940   22.3550 C   0  0  0  0  0  0  0  0  0  0  0  0
    3.9760    2.6590   22.3070 N   0  0  0  0  0  0  0  0  0  0  0  0
    2.7810    2.4370   23.2290 C   0  0  0  0  0  0  0  0  0  0  0  0
    2.7210    1.5030   24.2610 O   0  0  0  0  0  0  0  0  0  0  0  0
    1.8990    3.1710   22.9520 N   0  0  0  0  0  0  0  0  0  0  0  0
    0.8240    3.2970   23.8330 C   0  0  1  0  0  0  0  0  0  0  0  0
    0.6510    4.5750   24.4280 C   0  0  0  0  0  0  0  0  0  0  0  0
   -0.6620    4.8810   25.1460 C   0  0  0  0  0  0  0  0  0  0  0  0
   -1.9200    4.5520   24.3100 C   0  0  0  0  0  0  0  0  0  0  0  0
   -1.7320    3.1590   23.7940 C   0  0  0  0  0  0  0  0  0  0  0  0
   -0.4610    2.8710   23.0860 C   0  0  0  0  0  0  0  0  0  0  0  0
    8.8360   -0.3840   23.5620 H   0  0  0  0  0  0  0  0  0  0  0  0
    9.2660   -1.7690   22.5560 H   0  0  0  0  0  0  0  0  0  0  0  0
   10.9270    0.5950   23.1060 H   0  0  0  0  0  0  0  0  0  0  0  0
   10.7000   -0.5530   25.1290 H   0  0  0  0  0  0  0  0  0  0  0  0
   11.0980   -2.1040   24.5550 H   0  0  0  0  0  0  0  0  0  0  0  0
   12.7150    0.2860   24.6200 H   0  0  0  0  0  0  0  0  0  0  0  0
   13.1190   -1.0840   25.4070 H   0  0  0  0  0  0  0  0  0  0  0  0
   14.2080   -1.8920   23.7900 H   0  0  0  0  0  0  0  0  0  0  0  0
   14.1960   -0.4560   22.8840 H   0  0  0  0  0  0  0  0  0  0  0  0
   12.1080   -2.7290   22.8830 H   0  0  0  0  0  0  0  0  0  0  0  0
   13.1120   -2.3030   21.5690 H   0  0  0  0  0  0  0  0  0  0  0  0
   12.1830    0.0670   21.7240 H   0  0  0  0  0  0  0  0  0  0  0  0
   11.1080   -1.1300   21.1520 H   0  0  0  0  0  0  0  0  0  0  0  0
    7.3150   -1.4760   21.0310 H   0  0  0  0  0  0  0  0  0  0  0  0
    7.7520    1.5720   21.0700 H   0  0  0  0  0  0  0  0  0  0  0  0
    4.7850   -1.2590   17.5810 H   0  0  0  0  0  0  0  0  0  0  0  0
    3.4980   -0.7100   19.8630 H   0  0  0  0  0  0  0  0  0  0  0  0
    5.1670   -0.2520   22.7730 H   0  0  0  0  0  0  0  0  0  0  0  0
    3.8080    0.1120   21.8280 H   0  0  0  0  0  0  0  0  0  0  0  0
    5.7990    2.2410   21.7330 H   0  0  0  0  0  0  0  0  0  0  0  0
    5.4460    1.7890   23.3630 H   0  0  0  0  0  0  0  0  0  0  0  0
    4.1960    3.6470   22.1630 H   0  0  0  0  0  0  0  0  0  0  0  0
    1.6600    3.1980   21.9760 H   0  0  0  0  0  0  0  0  0  0  0  0
    0.9710    2.5760   24.6460 H   0  0  0  0  0  0  0  0  0  0  0  0
    0.7740    5.3040   23.6260 H   0  0  0  0  0  0  0  0  0  0  0  0
    1.4510    4.7180   25.1450 H   0  0  0  0  0  0  0  0  0  0  0  0
   -0.6650    5.9400   25.4290 H   0  0  0  0  0  0  0  0  0  0  0  0
   -0.7050    4.3240   26.0910 H   0  0  0  0  0  0  0  0  0  0  0  0
   -2.8130    4.6370   24.9360 H   0  0  0  0  0  0  0  0  0  0  0  0
   -2.0190    5.2570   23.4720 H   0  0  0  0  0  0  0  0  0  0  0  0
   -1.8500    2.4440   24.6160 H   0  0  0  0  0  0  0  0  0  0  0  0
   -2.5590    2.9410   23.1030 H   0  0  0  0  0  0  0  0  0  0  0  0
   -0.5070    3.3650   22.1090 H   0  0  0  0  0  0  0  0  0  0  0  0
   -0.3990    1.7990   22.8710 H   0  0  0  0  0  0  0  0  0  0  0  0
  1  2  2  0
  2  3  1  0
  3  4  1  0
  4  5  1  0
  5  6  1  0
  6  7  1  0
  7  8  1  0
  4  9  1  0
  8  9  1  0
  2 10  1  0
 11 10  1  6
 11 12  1  0
 11 13  1  0
 12 13  2  0
 13 14  1  0
 14 15  2  0
 15 16  1  0
 11 17  1  0
 16 17  2  0
 17 18  1  0
 18 19  1  0
 19 20  1  0
 20 21  1  0
 21 22  2  0
 21 23  1  0
 23 24  1  0
 24 25  1  0
 25 26  1  0
 26 27  1  0
 27 28  1  0
 24 29  1  0
 28 29  1  0
  3 30  1  0
  3 31  1  0
  4 32  1  1
  5 33  1  0
  5 34  1  0
  6 35  1  0
  6 36  1  0
  7 37  1  0
  7 38  1  0
  8 39  1  0
  8 40  1  0
  9 41  1  0
  9 42  1  0
 10 43  1  0
 12 44  1  0
 15 45  1  0
 16 46  1  0
 18 47  1  0
 18 48  1  0
 19 49  1  0
 19 50  1  0
 20 51  1  0
 23 52  1  0
 24 53  1  1
 25 54  1  0
 25 55  1  0
 26 56  1  0
 26 57  1  0
 27 58  1  0
 27 59  1  0
 28 60  1  0
 28 61  1  0
 29 62  1  0
 29 63  1  0
M  END
