
     RDKit          3D

 41 42  0  0  0  0  0  0  0  0999 V2000
    3.5610    1.9030   19.9310 N   0  0  0  0  0  0  0  0  0  0  0  0
    4.4130    1.4410   19.3060 C   0  0  0  0  0  0  0  0  0  0  0  0
    5.2240    1.3660   18.0140 C   0  0  0  0  0  0  0  0  0  0  0  0
    6.3310    0.4760   17.7550 N   0  0  0  0  0  0  0  0  0  0  0  0
    6.7210   -0.4020   18.7330 C   0  0  0  0  0  0  0  0  0  0  0  0
    6.0360   -0.4620   20.0500 C   0  0  0  0  0  0  0  0  0  0  0  0
    4.8960    0.4810   20.2820 C   0  0  0  0  0  0  0  0  0  0  0  0
    4.2550    0.4370   21.5160 C   0  0  0  0  0  0  0  0  0  0  0  0
    4.9230    1.3880   22.5060 C   0  0  0  0  0  0  0  0  0  0  0  0
    4.0890    2.6450   22.6830 N   0  0  0  0  0  0  0  0  0  0  0  0
    2.6970    2.4510   23.2600 C   0  0  0  0  0  0  0  0  0  0  0  0
    2.5920    1.7190   24.4690 O   0  0  0  0  0  0  0  0  0  0  0  0
    1.6230    2.9520   22.5980 N   0  0  0  0  0  0  0  0  0  0  0  0
    0.6140    3.6130   23.2510 C   0  0  2  0  0  0  0  0  0  0  0  0
    0.7200    4.3120   24.6110 C   0  0  0  0  0  0  0  0  0  0  0  0
   -0.4820    4.8010   25.1520 C   0  0  0  0  0  0  0  0  0  0  0  0
   -1.6210    4.5110   24.3780 C   0  0  0  0  0  0  0  0  0  0  0  0
   -1.6590    3.2380   23.8120 C   0  0  0  0  0  0  0  0  0  0  0  0
   -0.4950    2.7590   23.2330 C   0  0  0  0  0  0  0  0  0  0  0  0
    3.9350    2.6180   20.5610 H   0  0  0  0  0  0  0  0  0  0  0  0
    2.6930    2.1980   19.4790 H   0  0  0  0  0  0  0  0  0  0  0  0
    4.9070    2.0730   17.2340 H   0  0  0  0  0  0  0  0  0  0  0  0
    7.5560   -1.0540   18.4880 H   0  0  0  0  0  0  0  0  0  0  0  0
    6.2790   -1.1230   20.8750 H   0  0  0  0  0  0  0  0  0  0  0  0
    3.1850    0.6720   21.4160 H   0  0  0  0  0  0  0  0  0  0  0  0
    4.3150   -0.5800   21.9190 H   0  0  0  0  0  0  0  0  0  0  0  0
    5.9000    1.6980   22.1440 H   0  0  0  0  0  0  0  0  0  0  0  0
    5.0420    0.9040   23.4820 H   0  0  0  0  0  0  0  0  0  0  0  0
    4.2010    3.3510   21.9640 H   0  0  0  0  0  0  0  0  0  0  0  0
    1.8340    3.2670   21.6630 H   0  0  0  0  0  0  0  0  0  0  0  0
    0.2860    4.4300   22.5980 H   0  0  0  0  0  0  0  0  0  0  0  0
    1.3260    5.2060   24.4270 H   0  0  0  0  0  0  0  0  0  0  0  0
    1.3220    3.6650   25.2590 H   0  0  0  0  0  0  0  0  0  0  0  0
   -0.7210    4.3360   26.1110 H   0  0  0  0  0  0  0  0  0  0  0  0
   -0.4230    5.8460   25.4620 H   0  0  0  0  0  0  0  0  0  0  0  0
   -1.6910    5.1550   23.4950 H   0  0  0  0  0  0  0  0  0  0  0  0
   -2.5330    4.8020   24.8960 H   0  0  0  0  0  0  0  0  0  0  0  0
   -2.4490    3.2150   23.0550 H   0  0  0  0  0  0  0  0  0  0  0  0
   -1.9800    2.5100   24.5670 H   0  0  0  0  0  0  0  0  0  0  0  0
   -0.7130    2.4990   22.1900 H   0  0  0  0  0  0  0  0  0  0  0  0
   -0.2510    1.8130   23.7350 H   0  0  0  0  0  0  0  0  0  0  0  0
  1  2  1  0
  2  3  2  0
  3  4  1  0
  4  5  2  0
  5  6  1  0
  2  7  1  0
  6  7  2  0
  7  8  1  0
  8  9  1  0
  9 10  1  0
 10 11  1  0
 11 12  2  0
 11 13  1  0
 13 14  1  0
 14 15  1  0
 15 16  1  0
 16 17  1  0
 17 18  1  0
 14 19  1  0
 18 19  1  0
  1 20  1  0
  1 21  1  0
  3 22  1  0
  5 23  1  0
  6 24  1  0
  8 25  1  0
  8 26  1  0
  9 27  1  0
  9 28  1  0
 10 29  1  0
 13 30  1  0
 14 31  1  6
 15 32  1  0
 15 33  1  0
 16 34  1  0
 16 35  1  0
 17 36  1  0
 17 37  1  0
 18 38  1  0
 18 39  1  0
 19 40  1  0
 19 41  1  0
M  END
