LIG
     RDKit          3D

 46 47  0  0  0  0  0  0  0  0999 V2000
   10.0290   -0.6240   22.5460 C   0  0  0  0  0  0  0  0  0  0  0  0
    9.1310   -0.0090   21.4750 C   0  0  0  0  0  0  0  0  0  0  0  0
    9.4550    1.0030   20.9560 O   0  0  0  0  0  0  0  0  0  0  0  0
    7.8860   -0.6570   21.1000 N   0  0  0  0  0  0  0  0  0  0  0  0
    6.7055   -0.2095   19.9370 C   0  0  0  0  0  0  0  0  0  0  0  0
    7.0830   -0.1900   18.6040 C   0  0  0  0  0  0  0  0  0  0  0  0
    6.3870    0.4690   17.7180 N   0  0  0  0  0  0  0  0  0  0  0  0
    5.3025    1.1385   18.0645 C   0  0  0  0  0  0  0  0  0  0  0  0
    4.8500    1.1845   19.3755 C   0  0  0  0  0  0  0  0  0  0  0  0
    5.5715    0.4905   20.3320 C   0  0  0  0  0  0  0  0  0  0  0  0
    5.1370    0.4895   21.7925 C   0  0  0  0  0  0  0  0  0  0  0  0
    5.2050    1.5540   22.5490 C   0  0  0  0  0  0  0  0  0  0  0  0
    4.0700    2.4460   22.4650 N   0  0  0  0  0  0  0  0  0  0  0  0
    2.9270    2.3110   23.3520 C   0  0  0  0  0  0  0  0  0  0  0  0
    2.8920    1.4710   24.2020 O   0  0  0  0  0  0  0  0  0  0  0  0
    1.8460    3.2530   23.1370 N   0  0  0  0  0  0  0  0  0  0  0  0
    0.6480    3.2940   23.9490 C   0  0  0  0  0  0  0  0  0  0  0  0
    0.5370    4.7360   24.4510 C   0  0  0  0  0  0  0  0  0  0  0  0
   -0.7860    4.9880   25.1580 C   0  0  0  0  0  0  0  0  0  0  0  0
   -1.9540    4.6680   24.2350 C   0  0  0  0  0  0  0  0  0  0  0  0
   -1.8960    3.2340   23.7250 C   0  0  0  0  0  0  0  0  0  0  0  0
   -0.5430    2.8790   23.0980 C   0  0  0  0  0  0  0  0  0  0  0  0
   11.0358   -0.7804   22.1571 H   0  0  0  0  0  0  0  0  0  0  0  0
   10.3858   -1.5931   22.1946 H   0  0  0  0  0  0  0  0  0  0  0  0
    9.5982   -1.5732   22.8649 H   0  0  0  0  0  0  0  0  0  0  0  0
    7.6146   -1.4970   21.5397 H   0  0  0  0  0  0  0  0  0  0  0  0
    7.9412   -0.7035   18.2299 H   0  0  0  0  0  0  0  0  0  0  0  0
    4.7781    1.6571   17.2752 H   0  0  0  0  0  0  0  0  0  0  0  0
    3.9642    1.7522   19.6136 H   0  0  0  0  0  0  0  0  0  0  0  0
    4.0659    0.0026   21.7601 H   0  0  0  0  0  0  0  0  0  0  0  0
    5.6577   -0.4609   22.2562 H   0  0  0  0  0  0  0  0  0  0  0  0
    5.2786    1.3517   23.6654 H   0  0  0  0  0  0  0  0  0  0  0  0
    6.1071    2.2248   22.3696 H   0  0  0  0  0  0  0  0  0  0  0  0
    3.8088    2.7920   21.5551 H   0  0  0  0  0  0  0  0  0  0  0  0
    1.8315    3.6745   22.2179 H   0  0  0  0  0  0  0  0  0  0  0  0
    0.5443    4.4249   22.5085 H   0  0  0  0  0  0  0  0  0  0  0  0
    0.6422    5.4393   23.6141 H   0  0  0  0  0  0  0  0  0  0  0  0
    1.3664    4.9546   25.1391 H   0  0  0  0  0  0  0  0  0  0  0  0
   -0.8418    6.0342   25.4689 H   0  0  0  0  0  0  0  0  0  0  0  0
   -0.8482    4.3738   26.0584 H   0  0  0  0  0  0  0  0  0  0  0  0
   -1.9544    5.3623   23.3853 H   0  0  0  0  0  0  0  0  0  0  0  0
   -2.8986    4.8261   24.7731 H   0  0  0  0  0  0  0  0  0  0  0  0
   -2.1081    2.5380   24.5513 H   0  0  0  0  0  0  0  0  0  0  0  0
   -2.6913    3.0771   22.9784 H   0  0  0  0  0  0  0  0  0  0  0  0
   -0.4764    3.3473   22.0988 H   0  0  0  0  0  0  0  0  0  0  0  0
   -0.5139    1.7889   22.9096 H   0  0  0  0  0  0  0  0  0  0  0  0
  1  2  1  0
  2  3  2  0
  2  4  1  0
  4  5  1  0
  5  6  4  0
  6  7  4  0
  7  8  4  0
  8  9  4  0
  9 10  4  0
 10 11  1  0
 11 12  1  0
 12 13  1  0
 13 14  1  0
 14 15  2  0
 14 16  1  0
 16 17  1  0
 17 18  1  0
 18 19  1  0
 19 20  1  0
 20 21  1  0
 21 22  1  0
 10  5  4  0
 22 17  1  0
  1 23  1  0
  1 24  1  0
  1 25  1  0
  4 26  1  0
  6 27  1  0
  8 28  1  0
  9 29  1  0
 11 30  1  0
 11 31  1  0
 12 32  1  0
 12 33  1  0
 13 34  1  0
 16 35  1  0
 17 36  1  0
 18 37  1  0
 18 38  1  0
 19 39  1  0
 19 40  1  0
 20 41  1  0
 20 42  1  0
 21 43  1  0
 21 44  1  0
 22 45  1  0
 22 46  1  0
M  END
