LIG
     RDKit          3D

 55 57  0  0  0  0  0  0  0  0999 V2000
    9.1440    0.7090   20.8350 O   0  0  0  0  0  0  0  0  0  0  0  0
    8.5920   -0.2080   21.3470 C   0  0  0  0  0  0  0  0  0  0  0  0
    9.2320   -0.9350   22.4160 N   0  0  0  0  0  0  0  0  0  0  0  0
   10.5180   -0.4560   22.8190 C   0  0  0  0  0  0  0  0  0  0  0  0
   10.5550    0.3780   23.9180 C   0  0  0  0  0  0  0  0  0  0  0  0
   11.7600    0.8910   24.3310 C   0  0  0  0  0  0  0  0  0  0  0  0
   12.9190    0.5770   23.6360 C   0  0  0  0  0  0  0  0  0  0  0  0
   12.8740   -0.2570   22.5320 C   0  0  0  0  0  0  0  0  0  0  0  0
   11.6620   -0.7700   22.1120 C   0  0  0  0  0  0  0  0  0  0  0  0
    7.2840   -0.6350   20.9180 N   0  0  0  0  0  0  0  0  0  0  0  0
    6.4910   -0.1460   19.8255 C   0  0  0  0  0  0  0  0  0  0  0  0
    6.9525   -0.0790   18.5235 C   0  0  0  0  0  0  0  0  0  0  0  0
    6.3160    0.6365   17.6360 N   0  0  0  0  0  0  0  0  0  0  0  0
    5.2230    1.3020   17.9430 C   0  0  0  0  0  0  0  0  0  0  0  0
    4.7015    1.3030   19.2300 C   0  0  0  0  0  0  0  0  0  0  0  0
    5.3525    0.5500   20.1940 C   0  0  0  0  0  0  0  0  0  0  0  0
    4.8810    0.3160   21.7180 C   0  0  0  0  0  0  0  0  0  0  0  0
    5.2050    1.5540   22.5490 C   0  0  0  0  0  0  0  0  0  0  0  0
    4.0700    2.4460   22.4650 N   0  0  0  0  0  0  0  0  0  0  0  0
    2.9270    2.3110   23.3520 C   0  0  0  0  0  0  0  0  0  0  0  0
    2.8920    1.4710   24.2020 O   0  0  0  0  0  0  0  0  0  0  0  0
    1.8460    3.2530   23.1370 N   0  0  0  0  0  0  0  0  0  0  0  0
    0.6480    3.2940   23.9490 C   0  0  0  0  0  0  0  0  0  0  0  0
   -0.5430    2.8790   23.0980 C   0  0  0  0  0  0  0  0  0  0  0  0
   -1.8960    3.2340   23.7250 C   0  0  0  0  0  0  0  0  0  0  0  0
   -1.9540    4.6680   24.2350 C   0  0  0  0  0  0  0  0  0  0  0  0
   -0.7860    4.9880   25.1580 C   0  0  0  0  0  0  0  0  0  0  0  0
    0.5370    4.7360   24.4510 C   0  0  0  0  0  0  0  0  0  0  0  0
    8.7661   -1.5486   22.9099 H   0  0  0  0  0  0  0  0  0  0  0  0
    9.6600    0.6494   24.4661 H   0  0  0  0  0  0  0  0  0  0  0  0
   11.8109    1.5449   25.2006 H   0  0  0  0  0  0  0  0  0  0  0  0
   13.8760    0.9956   23.9644 H   0  0  0  0  0  0  0  0  0  0  0  0
   13.7914   -0.5039   22.0007 H   0  0  0  0  0  0  0  0  0  0  0  0
   11.6364   -1.4086   21.2397 H   0  0  0  0  0  0  0  0  0  0  0  0
    6.9693   -1.4778   21.3758 H   0  0  0  0  0  0  0  0  0  0  0  0
    7.8311   -0.5725   18.1825 H   0  0  0  0  0  0  0  0  0  0  0  0
    4.7449    1.8510   17.1462 H   0  0  0  0  0  0  0  0  0  0  0  0
    3.8156    1.8804   19.4410 H   0  0  0  0  0  0  0  0  0  0  0  0
    5.4021   -0.5431   22.0876 H   0  0  0  0  0  0  0  0  0  0  0  0
    3.8329    0.1068   21.6979 H   0  0  0  0  0  0  0  0  0  0  0  0
    5.3636    1.3172   23.5850 H   0  0  0  0  0  0  0  0  0  0  0  0
    6.0723    2.0422   22.1403 H   0  0  0  0  0  0  0  0  0  0  0  0
    3.7438    2.6840   21.5296 H   0  0  0  0  0  0  0  0  0  0  0  0
    2.1939    4.1308   22.7585 H   0  0  0  0  0  0  0  0  0  0  0  0
    0.5427    4.4172   22.5028 H   0  0  0  0  0  0  0  0  0  0  0  0
   -0.5124    1.7882   22.9118 H   0  0  0  0  0  0  0  0  0  0  0  0
   -0.4849    3.3431   22.0961 H   0  0  0  0  0  0  0  0  0  0  0  0
   -2.6907    3.0777   22.9782 H   0  0  0  0  0  0  0  0  0  0  0  0
   -2.1081    2.5384   24.5511 H   0  0  0  0  0  0  0  0  0  0  0  0
   -2.8987    4.8261   24.7730 H   0  0  0  0  0  0  0  0  0  0  0  0
   -1.9544    5.3623   23.3852 H   0  0  0  0  0  0  0  0  0  0  0  0
   -0.8481    4.3736   26.0586 H   0  0  0  0  0  0  0  0  0  0  0  0
   -0.8419    6.0343   25.4699 H   0  0  0  0  0  0  0  0  0  0  0  0
    0.6430    5.4331   23.6093 H   0  0  0  0  0  0  0  0  0  0  0  0
    1.3658    4.9570   25.1383 H   0  0  0  0  0  0  0  0  0  0  0  0
  1  2  2  0
  2  3  1  0
  3  4  1  0
  4  5  4  0
  5  6  4  0
  6  7  4  0
  7  8  4  0
  8  9  4  0
  2 10  1  0
 10 11  1  0
 11 12  4  0
 12 13  4  0
 13 14  4  0
 14 15  4  0
 15 16  4  0
 16 17  1  0
 17 18  1  0
 18 19  1  0
 19 20  1  0
 20 21  2  0
 20 22  1  0
 22 23  1  0
 23 24  1  0
 24 25  1  0
 25 26  1  0
 26 27  1  0
 27 28  1  0
  9  4  4  0
 16 11  4  0
 28 23  1  0
  3 29  1  0
  5 30  1  0
  6 31  1  0
  7 32  1  0
  8 33  1  0
  9 34  1  0
 10 35  1  0
 12 36  1  0
 14 37  1  0
 15 38  1  0
 17 39  1  0
 17 40  1  0
 18 41  1  0
 18 42  1  0
 19 43  1  0
 22 44  1  0
 23 45  1  0
 24 46  1  0
 24 47  1  0
 25 48  1  0
 25 49  1  0
 26 50  1  0
 26 51  1  0
 27 52  1  0
 27 53  1  0
 28 54  1  0
 28 55  1  0
M  END
