LIG
     RDKit          3D

 42 44  0  0  0  0  0  0  0  0999 V2000
   21.7110   -8.6060    6.3130 C   0  0  0  0  0  0  0  0  0  0  0  0
   21.8740   -7.6720    5.8455 C   0  0  0  0  0  0  0  0  0  0  0  0
   23.6155   -6.9265    5.5275 C   0  0  0  0  0  0  0  0  0  0  0  0
   25.6720   -6.7390    6.1380 C   0  0  0  0  0  0  0  0  0  0  0  0
   26.4130   -7.9350    5.8010 C   0  0  0  0  0  0  0  0  0  0  0  0
   25.8430   -9.7650    4.8055 C   0  0  0  0  0  0  0  0  0  0  0  0
   26.4220  -10.3480    5.3815 C   0  0  0  0  0  0  0  0  0  0  0  0
   27.0560  -11.0930    6.1275 N   0  0  0  0  0  0  0  0  0  0  0  0
   27.8460  -10.6350    7.1120 C   0  0  0  0  0  0  0  0  0  0  0  0
   27.9795  -11.5150    8.2905 C   0  0  0  0  0  0  0  0  0  0  0  0
   28.0630  -12.8695    8.0155 O   0  0  0  0  0  0  0  0  0  0  0  0
   27.1990  -13.3120    7.0475 C   0  0  0  0  0  0  0  0  0  0  0  0
   27.1405  -12.4350    5.8165 C   0  0  0  0  0  0  0  0  0  0  0  0
   24.2440  -10.7970    3.9930 S   0  0  0  0  0  0  0  0  0  0  0  0
   23.8055   -9.3285    5.0965 C   0  0  0  0  0  0  0  0  0  0  0  0
   22.3920   -9.6730    5.7370 C   0  0  0  0  0  0  0  0  0  0  0  0
   23.5805   -8.0945    5.0600 C   0  0  0  0  0  0  0  0  0  0  0  0
   21.9705   -8.6952    7.4653 H   0  0  0  0  0  0  0  0  0  0  0  0
   20.5941   -8.9872    6.4180 H   0  0  0  0  0  0  0  0  0  0  0  0
   21.4773   -6.6491    6.3225 H   0  0  0  0  0  0  0  0  0  0  0  0
   21.4733   -7.3882    4.7490 H   0  0  0  0  0  0  0  0  0  0  0  0
   23.8679   -8.3324    6.6564 H   0  0  0  0  0  0  0  0  0  0  0  0
   25.4331   -6.4700    7.1170 H   0  0  0  0  0  0  0  0  0  0  0  0
   25.8011   -5.8887    5.5166 H   0  0  0  0  0  0  0  0  0  0  0  0
   26.8716   -8.5126    6.6768 H   0  0  0  0  0  0  0  0  0  0  0  0
   27.3702   -7.8375    5.1801 H   0  0  0  0  0  0  0  0  0  0  0  0
   26.4722   -9.4615    3.8508 H   0  0  0  0  0  0  0  0  0  0  0  0
   27.4237   -9.3495    5.5853 H   0  0  0  0  0  0  0  0  0  0  0  0
   27.4686  -10.5765    4.3487 H   0  0  0  0  0  0  0  0  0  0  0  0
   27.5019   -9.6157    7.4844 H   0  0  0  0  0  0  0  0  0  0  0  0
   28.9020  -10.4309    6.7572 H   0  0  0  0  0  0  0  0  0  0  0  0
   28.8649  -11.2195    8.9222 H   0  0  0  0  0  0  0  0  0  0  0  0
   27.1037  -11.3700    8.9780 H   0  0  0  0  0  0  0  0  0  0  0  0
   26.1780  -13.3796    7.4951 H   0  0  0  0  0  0  0  0  0  0  0  0
   27.4511  -14.3668    6.7645 H   0  0  0  0  0  0  0  0  0  0  0  0
   28.0453  -12.6624    5.2071 H   0  0  0  0  0  0  0  0  0  0  0  0
   26.2729  -12.7723    5.2002 H   0  0  0  0  0  0  0  0  0  0  0  0
   24.3909   -9.5916    6.0725 H   0  0  0  0  0  0  0  0  0  0  0  0
   21.7752  -10.2138    4.9710 H   0  0  0  0  0  0  0  0  0  0  0  0
   22.5979  -10.4972    6.4765 H   0  0  0  0  0  0  0  0  0  0  0  0
   23.9469   -7.8322    3.7987 H   0  0  0  0  0  0  0  0  0  0  0  0
   22.3518   -8.0682    4.4532 H   0  0  0  0  0  0  0  0  0  0  0  0
  1  2  1  0
  2  3  1  0
  3  4  1  0
  4  5  1  0
  5  6  1  0
  6  7  1  0
  7  8  1  0
  8  9  1  0
  9 10  1  0
 10 11  1  0
 11 12  1  0
 12 13  1  0
  6 14  1  0
 14 15  1  0
 15 16  1  0
 15 17  1  0
 16  1  1  0
 17  3  1  0
 13  8  1  0
  1 18  1  0
  1 19  1  0
  2 20  1  0
  2 21  1  0
  3 22  1  0
  4 23  1  0
  4 24  1  0
  5 25  1  0
  5 26  1  0
  6 27  1  0
  7 28  1  0
  7 29  1  0
  9 30  1  0
  9 31  1  0
 10 32  1  0
 10 33  1  0
 12 34  1  0
 12 35  1  0
 13 36  1  0
 13 37  1  0
 15 38  1  0
 16 39  1  0
 16 40  1  0
 17 41  1  0
 17 42  1  0
M  END
