
     RDKit          3D

 50 52  0  0  0  0  0  0  0  0999 V2000
    9.3280    0.3980   21.5550 O   0  0  0  0  0  0  0  0  0  0  0  0
    8.6210   -0.5860   22.3060 C   0  0  0  0  0  0  0  0  0  0  0  0
    7.2930   -0.9340   21.7460 N   0  0  0  0  0  0  0  0  0  0  0  0
    6.7830   -0.2650   20.4950 C   0  0  0  0  0  0  0  0  0  0  0  0
    5.7250    0.6270   20.6860 C   0  0  0  0  0  0  0  0  0  0  0  0
    5.0260    1.4170   19.5720 C   0  0  0  0  0  0  0  0  0  0  0  0
    5.5490    1.1910   18.1870 C   0  0  0  0  0  0  0  0  0  0  0  0
    6.6760    0.2320   18.0520 N   0  0  0  0  0  0  0  0  0  0  0  0
    7.2650   -0.4740   19.1980 C   0  0  0  0  0  0  0  0  0  0  0  0
    9.2430   -1.1930   23.6720 C   0  0  2  0  0  0  0  0  0  0  0  0
   10.6230   -1.0540   23.5140 C   0  0  2  0  0  0  0  0  0  0  0  0
   11.1420    0.2940   23.7720 C   0  0  0  0  0  0  0  0  0  0  0  0
   12.6260    0.1830   23.8840 C   0  0  0  0  0  0  0  0  0  0  0  0
   13.2650   -0.7990   23.1420 C   0  0  0  0  0  0  0  0  0  0  0  0
   12.5210   -1.6730   22.3360 C   0  0  0  0  0  0  0  0  0  0  0  0
   11.1370   -1.5100   22.2860 C   0  0  0  0  0  0  0  0  0  0  0  0
    8.9500   -2.6400   24.1190 N   0  0  0  0  0  0  0  0  0  0  0  0
    7.7860   -2.7820   25.0190 C   0  0  0  0  0  0  0  0  0  0  0  0
    7.7180   -3.9570   25.8200 C   0  0  0  0  0  0  0  0  0  0  0  0
    9.0930   -4.2170   26.3970 C   0  0  1  0  0  0  0  0  0  0  0  0
    9.0900   -5.3050   27.2990 O   0  0  0  0  0  0  0  0  0  0  0  0
   10.1090   -4.3360   25.4960 C   0  0  0  0  0  0  0  0  0  0  0  0
   10.2350   -3.2140   24.6620 C   0  0  0  0  0  0  0  0  0  0  0  0
    7.0600   -1.9170   21.8890 H   0  0  0  0  0  0  0  0  0  0  0  0
    5.3560    0.7770   21.7120 H   0  0  0  0  0  0  0  0  0  0  0  0
    4.2070    2.0960   19.7720 H   0  0  0  0  0  0  0  0  0  0  0  0
    5.1580    1.6780   17.2930 H   0  0  0  0  0  0  0  0  0  0  0  0
    8.0770   -1.1510   18.9680 H   0  0  0  0  0  0  0  0  0  0  0  0
    8.7680   -0.6240   24.4670 H   0  0  0  0  0  0  0  0  0  0  0  0
   11.1330   -1.7870   24.1290 H   0  0  0  0  0  0  0  0  0  0  0  0
   10.8750    1.0060   22.9820 H   0  0  0  0  0  0  0  0  0  0  0  0
   10.7170    0.6800   24.7030 H   0  0  0  0  0  0  0  0  0  0  0  0
   12.8570    0.0400   24.9430 H   0  0  0  0  0  0  0  0  0  0  0  0
   13.0620    1.1360   23.5720 H   0  0  0  0  0  0  0  0  0  0  0  0
   13.9240   -0.2490   22.4650 H   0  0  0  0  0  0  0  0  0  0  0  0
   13.9540   -1.3090   23.8080 H   0  0  0  0  0  0  0  0  0  0  0  0
   12.8260   -2.7070   22.4570 H   0  0  0  0  0  0  0  0  0  0  0  0
   12.8380   -1.4590   21.3170 H   0  0  0  0  0  0  0  0  0  0  0  0
   10.8100   -0.9260   21.4340 H   0  0  0  0  0  0  0  0  0  0  0  0
   10.6000   -2.4400   22.1000 H   0  0  0  0  0  0  0  0  0  0  0  0
    6.8880   -2.5210   24.4470 H   0  0  0  0  0  0  0  0  0  0  0  0
    7.8660   -1.9480   25.7270 H   0  0  0  0  0  0  0  0  0  0  0  0
    7.0270   -3.7820   26.6500 H   0  0  0  0  0  0  0  0  0  0  0  0
    7.3780   -4.8880   25.3580 H   0  0  0  0  0  0  0  0  0  0  0  0
    9.3410   -3.3790   27.0180 H   0  0  0  0  0  0  0  0  0  0  0  0
    8.3530   -5.1650   27.9170 H   0  0  0  0  0  0  0  0  0  0  0  0
   11.0370   -4.6930   25.9350 H   0  0  0  0  0  0  0  0  0  0  0  0
    9.8140   -5.1590   24.8490 H   0  0  0  0  0  0  0  0  0  0  0  0
   10.8060   -2.4510   25.1920 H   0  0  0  0  0  0  0  0  0  0  0  0
   10.8410   -3.5210   23.8030 H   0  0  0  0  0  0  0  0  0  0  0  0
  1  2  2  0
  2  3  1  0
  3  4  1  0
  4  5  2  0
  5  6  1  0
  6  7  2  0
  7  8  1  0
  4  9  1  0
  8  9  2  0
  2 10  1  0
 10 11  1  0
 11 12  1  0
 12 13  1  0
 13 14  1  0
 14 15  1  0
 11 16  1  0
 15 16  1  0
 10 17  1  0
 17 18  1  0
 18 19  1  0
 19 20  1  0
 20 21  1  0
 20 22  1  0
 17 23  1  0
 22 23  1  0
  3 24  1  0
  5 25  1  0
  6 26  1  0
  7 27  1  0
  9 28  1  0
 10 29  1  1
 11 30  1  1
 12 31  1  0
 12 32  1  0
 13 33  1  0
 13 34  1  0
 14 35  1  0
 14 36  1  0
 15 37  1  0
 15 38  1  0
 16 39  1  0
 16 40  1  0
 18 41  1  0
 18 42  1  0
 19 43  1  0
 19 44  1  0
 20 45  1  1
 21 46  1  0
 22 47  1  0
 22 48  1  0
 23 49  1  0
 23 50  1  0
M  END
