
     RDKit          3D

 35 37  0  0  0  0  0  0  0  0999 V2000
    9.0530    1.3950   21.2400 O   0  0  0  0  0  0  0  0  0  0  0  0
    8.4510    0.2120   21.7820 C   0  0  0  0  0  0  0  0  0  0  0  0
    8.8440   -0.2350   23.1670 C   0  0  0  0  0  0  0  0  0  0  0  0
   10.0450   -0.9280   23.4030 C   0  0  1  0  0  0  0  0  0  0  0  0
   10.7510   -1.5080   22.1870 C   0  0  0  0  0  0  0  0  0  0  0  0
   12.1560   -1.8790   22.5430 C   0  0  0  0  0  0  0  0  0  0  0  0
   13.0380   -0.8670   22.8080 C   0  0  0  0  0  0  0  0  0  0  0  0
   12.5190   -0.2200   24.0790 C   0  0  1  0  0  0  0  0  0  0  0  0
   11.8520    0.8260   23.7640 C   0  0  0  0  0  0  0  0  0  0  0  0
   10.9170   -0.2710   24.2810 C   0  0  1  0  0  0  0  0  0  0  0  0
    7.4290   -0.5670   21.0910 N   0  0  0  0  0  0  0  0  0  0  0  0
    6.7040    0.0400   20.0960 C   0  0  0  0  0  0  0  0  0  0  0  0
    5.6140    0.8170   20.4390 C   0  0  0  0  0  0  0  0  0  0  0  0
    4.9020    1.4260   19.4240 C   0  0  0  0  0  0  0  0  0  0  0  0
    5.2300    1.2940   18.0930 C   0  0  0  0  0  0  0  0  0  0  0  0
    6.2770    0.5450   17.7020 N   0  0  0  0  0  0  0  0  0  0  0  0
    7.0130   -0.0860   18.7430 C   0  0  0  0  0  0  0  0  0  0  0  0
    8.8590    0.6640   23.7920 H   0  0  0  0  0  0  0  0  0  0  0  0
    8.0360   -0.8680   23.5570 H   0  0  0  0  0  0  0  0  0  0  0  0
    9.7600   -1.8140   23.9890 H   0  0  0  0  0  0  0  0  0  0  0  0
   10.2080   -2.4200   21.9130 H   0  0  0  0  0  0  0  0  0  0  0  0
   10.7630   -0.9320   21.2790 H   0  0  0  0  0  0  0  0  0  0  0  0
   11.9790   -2.5700   23.3620 H   0  0  0  0  0  0  0  0  0  0  0  0
   12.5620   -2.6060   21.8440 H   0  0  0  0  0  0  0  0  0  0  0  0
   13.9410   -1.4050   23.0950 H   0  0  0  0  0  0  0  0  0  0  0  0
   13.4010   -0.1610   22.0740 H   0  0  0  0  0  0  0  0  0  0  0  0
   13.1150   -0.2560   24.9890 H   0  0  0  0  0  0  0  0  0  0  0  0
   11.9280    1.7420   24.3230 H   0  0  0  0  0  0  0  0  0  0  0  0
   11.7940    1.1260   22.7180 H   0  0  0  0  0  0  0  0  0  0  0  0
   10.5310   -0.2510   25.3040 H   0  0  0  0  0  0  0  0  0  0  0  0
    6.9800   -1.3540   21.5650 H   0  0  0  0  0  0  0  0  0  0  0  0
    5.2540    1.0000   21.4550 H   0  0  0  0  0  0  0  0  0  0  0  0
    4.0370    2.0460   19.6910 H   0  0  0  0  0  0  0  0  0  0  0  0
    4.6650    1.7830   17.2990 H   0  0  0  0  0  0  0  0  0  0  0  0
    7.8600   -0.6920   18.4010 H   0  0  0  0  0  0  0  0  0  0  0  0
  1  2  2  0
  2  3  1  0
  3  4  1  0
  4  5  1  0
  5  6  1  0
  6  7  1  0
  7  8  1  0
  8  9  1  0
  4 10  1  0
  8 10  1  0
  9 10  1  0
  2 11  1  0
 11 12  1  0
 12 13  2  0
 13 14  1  0
 14 15  2  0
 15 16  1  0
 12 17  1  0
 16 17  2  0
  3 18  1  0
  3 19  1  0
  4 20  1  1
  5 21  1  0
  5 22  1  0
  6 23  1  0
  6 24  1  0
  7 25  1  0
  7 26  1  0
  8 27  1  1
  9 28  1  0
  9 29  1  0
 10 30  1  1
 11 31  1  0
 13 32  1  0
 14 33  1  0
 15 34  1  0
 17 35  1  0
M  END
