LIG
     RDKit          3D

 63 66  0  0  0  0  0  0  0  0999 V2000
    9.4190    1.1020   21.0000 O   0  0  0  0  0  0  0  0  0  0  0  0
    8.8650    0.3120   21.6960 C   0  0  0  0  0  0  0  0  0  0  0  0
    9.4090   -0.1550   23.0330 C   0  0  0  0  0  0  0  0  0  0  0  0
   10.9230   -0.0800   23.0900 C   0  0  0  0  0  0  0  0  0  0  0  0
   11.2810   -0.4020   24.5270 C   0  0  0  0  0  0  0  0  0  0  0  0
   12.7710   -0.1530   24.6900 C   0  0  0  0  0  0  0  0  0  0  0  0
   13.6100   -0.8590   23.6290 C   0  0  0  0  0  0  0  0  0  0  0  0
   12.8180   -1.7130   22.6470 C   0  0  0  0  0  0  0  0  0  0  0  0
   11.5620   -1.0470   22.0960 C   0  0  0  0  0  0  0  0  0  0  0  0
    7.6120   -0.2560   21.3260 N   0  0  0  0  0  0  0  0  0  0  0  0
    6.6895   -0.0860   19.9535 C   0  0  0  0  0  0  0  0  0  0  0  0
    7.6260    0.0260   18.8870 C   0  0  0  0  0  0  0  0  0  0  0  0
    6.8805    0.1095   18.1410 C   0  0  0  0  0  0  0  0  0  0  0  0
    5.9635    0.7970   17.7630 N   0  0  0  0  0  0  0  0  0  0  0  0
    5.2973    1.5109   18.6719 C   0  0  0  0  0  0  0  0  0  0  0  0
    5.5540    1.4326   20.1366 C   0  0  0  0  0  0  0  0  0  0  0  0
    5.5315    0.5995   20.2515 C   0  0  0  0  0  0  0  0  0  0  0  0
    4.8810    0.3160   21.7180 C   0  0  0  0  0  0  0  0  0  0  0  0
    5.2050    1.5540   22.5490 C   0  0  0  0  0  0  0  0  0  0  0  0
    4.0700    2.4460   22.4650 N   0  0  0  0  0  0  0  0  0  0  0  0
    2.9270    2.3110   23.3520 C   0  0  0  0  0  0  0  0  0  0  0  0
    2.8920    1.4710   24.2020 O   0  0  0  0  0  0  0  0  0  0  0  0
    1.8460    3.2530   23.1370 N   0  0  0  0  0  0  0  0  0  0  0  0
    0.6480    3.2940   23.9490 C   0  0  0  0  0  0  0  0  0  0  0  0
    0.5370    4.7360   24.4510 C   0  0  0  0  0  0  0  0  0  0  0  0
   -0.7860    4.9880   25.1580 C   0  0  0  0  0  0  0  0  0  0  0  0
   -1.9540    4.6680   24.2350 C   0  0  0  0  0  0  0  0  0  0  0  0
   -1.8960    3.2340   23.7250 C   0  0  0  0  0  0  0  0  0  0  0  0
   -0.5430    2.8790   23.0980 C   0  0  0  0  0  0  0  0  0  0  0  0
    9.0775   -1.1898   23.1565 H   0  0  0  0  0  0  0  0  0  0  0  0
    8.9609    0.4455   23.8283 H   0  0  0  0  0  0  0  0  0  0  0  0
   10.3783   -1.7886   23.4953 H   0  0  0  0  0  0  0  0  0  0  0  0
   10.7307    0.2312   25.2104 H   0  0  0  0  0  0  0  0  0  0  0  0
   11.0654   -1.4373   24.7522 H   0  0  0  0  0  0  0  0  0  0  0  0
   13.0921   -0.4903   25.6901 H   0  0  0  0  0  0  0  0  0  0  0  0
   12.9722    0.9301   24.6534 H   0  0  0  0  0  0  0  0  0  0  0  0
   14.1919   -0.0984   23.0635 H   0  0  0  0  0  0  0  0  0  0  0  0
   14.3763   -1.4897   24.1293 H   0  0  0  0  0  0  0  0  0  0  0  0
   13.4765   -2.0077   21.8038 H   0  0  0  0  0  0  0  0  0  0  0  0
   12.5372   -2.6674   23.1406 H   0  0  0  0  0  0  0  0  0  0  0  0
   10.8466   -1.8329   21.8059 H   0  0  0  0  0  0  0  0  0  0  0  0
   11.8207   -0.5150   21.1647 H   0  0  0  0  0  0  0  0  0  0  0  0
    7.2738   -1.0845   21.8560 H   0  0  0  0  0  0  0  0  0  0  0  0
    8.6146   -0.7024   18.6966 H   0  0  0  0  0  0  0  0  0  0  0  0
    4.4737    2.1848   18.3834 H   0  0  0  0  0  0  0  0  0  0  0  0
    4.9146    1.9905   20.8057 H   0  0  0  0  0  0  0  0  0  0  0  0
    5.3380   -0.5428   22.1154 H   0  0  0  0  0  0  0  0  0  0  0  0
    3.8459    0.2025   21.5797 H   0  0  0  0  0  0  0  0  0  0  0  0
    6.0675    2.0526   22.1379 H   0  0  0  0  0  0  0  0  0  0  0  0
    5.3783    1.3136   23.5837 H   0  0  0  0  0  0  0  0  0  0  0  0
    3.7488    2.7056   21.5355 H   0  0  0  0  0  0  0  0  0  0  0  0
    2.2089    4.1397   22.7885 H   0  0  0  0  0  0  0  0  0  0  0  0
    0.7730    2.6277   24.7665 H   0  0  0  0  0  0  0  0  0  0  0  0
    1.3693    4.9562   25.1313 H   0  0  0  0  0  0  0  0  0  0  0  0
    0.6313    5.4460   23.6177 H   0  0  0  0  0  0  0  0  0  0  0  0
   -0.8485    6.0257   25.4888 H   0  0  0  0  0  0  0  0  0  0  0  0
   -0.8417    4.3625   26.0521 H   0  0  0  0  0  0  0  0  0  0  0  0
   -2.8866    4.8350   24.7754 H   0  0  0  0  0  0  0  0  0  0  0  0
   -1.9547    5.3470   23.3817 H   0  0  0  0  0  0  0  0  0  0  0  0
   -2.1206    2.5388   24.5484 H   0  0  0  0  0  0  0  0  0  0  0  0
   -2.6879    3.0765   22.9754 H   0  0  0  0  0  0  0  0  0  0  0  0
   -0.5197    1.7842   22.9447 H   0  0  0  0  0  0  0  0  0  0  0  0
   -0.4827    3.3176   22.0852 H   0  0  0  0  0  0  0  0  0  0  0  0
  1  2  2  0
  2  3  1  0
  3  4  1  0
  4  5  1  0
  5  6  1  0
  6  7  1  0
  7  8  1  0
  8  9  1  0
  2 10  1  0
 10 11  1  0
 11 12  1  0
 12 13  2  0
 13 14  1  0
 14 15  2  0
 15 16  1  0
 16 17  2  0
 17 18  1  0
 18 19  1  0
 19 20  1  0
 20 21  1  0
 21 22  2  0
 21 23  1  0
 23 24  1  0
 24 25  1  0
 25 26  1  0
 26 27  1  0
 27 28  1  0
 28 29  1  0
  9  4  1  0
 13 11  1  0
 29 24  1  0
 17 11  1  0
  3 30  1  0
  3 31  1  0
  4 32  1  0
  5 33  1  0
  5 34  1  0
  6 35  1  0
  6 36  1  0
  7 37  1  0
  7 38  1  0
  8 39  1  0
  8 40  1  0
  9 41  1  0
  9 42  1  0
 10 43  1  0
 12 44  1  0
 15 45  1  0
 16 46  1  0
 18 47  1  0
 18 48  1  0
 19 49  1  0
 19 50  1  0
 20 51  1  0
 23 52  1  0
 24 53  1  0
 25 54  1  0
 25 55  1  0
 26 56  1  0
 26 57  1  0
 27 58  1  0
 27 59  1  0
 28 60  1  0
 28 61  1  0
 29 62  1  0
 29 63  1  0
M  END
