
     RDKit          3D

 45 46  0  0  0  0  0  0  0  0999 V2000
    6.6530   -4.8770   25.7840 C   0  0  0  0  0  0  0  0  0  0  0  0
    8.2550   -4.1070   25.7150 S   0  0  2  0  0  0  0  0  0  0  0  0
    9.2450   -5.1610   25.7350 O   0  0  0  0  0  0  0  0  0  0  0  0
    8.2420   -3.0750   26.7260 O   0  0  0  0  0  0  0  0  0  0  0  0
    8.2890   -3.3160   24.1930 N   0  0  0  0  0  0  0  0  0  0  0  0
    8.7660   -1.8910   24.0960 C   0  0  0  0  0  0  0  0  0  0  0  0
    9.1820   -1.4770   22.7710 C   0  0  1  0  0  0  0  0  0  0  0  0
    8.4140   -0.4040   21.9510 C   0  0  0  0  0  0  0  0  0  0  0  0
    8.9080    0.7160   21.7610 O   0  0  0  0  0  0  0  0  0  0  0  0
    7.1140   -0.8270   21.4260 N   0  0  0  0  0  0  0  0  0  0  0  0
    6.5740   -0.1130   20.2530 C   0  0  0  0  0  0  0  0  0  0  0  0
    5.4680    0.6780   20.5130 C   0  0  0  0  0  0  0  0  0  0  0  0
    4.9280    1.4020   19.2760 C   0  0  0  0  0  0  0  0  0  0  0  0
    5.5950    1.1840   18.0570 C   0  0  0  0  0  0  0  0  0  0  0  0
    6.6550    0.3960   17.9040 N   0  0  0  0  0  0  0  0  0  0  0  0
    7.1200   -0.2320   18.9890 C   0  0  0  0  0  0  0  0  0  0  0  0
   10.6230   -0.8940   22.7380 C   0  0  1  0  0  0  0  0  0  0  0  0
   10.9620   -0.2170   23.8970 C   0  0  0  0  0  0  0  0  0  0  0  0
   12.2650    0.2390   23.9460 C   0  0  0  0  0  0  0  0  0  0  0  0
   13.2410   -0.3830   23.1860 C   0  0  0  0  0  0  0  0  0  0  0  0
   12.9790   -1.3790   22.2520 C   0  0  0  0  0  0  0  0  0  0  0  0
   11.6780   -1.9000   22.2730 C   0  0  0  0  0  0  0  0  0  0  0  0
    6.3920   -5.2220   24.7790 H   0  0  0  0  0  0  0  0  0  0  0  0
    5.9070   -4.1460   26.1120 H   0  0  0  0  0  0  0  0  0  0  0  0
    6.6820   -5.7280   26.4690 H   0  0  0  0  0  0  0  0  0  0  0  0
    8.5350   -3.9730   23.4650 H   0  0  0  0  0  0  0  0  0  0  0  0
    9.6000   -1.7570   24.7890 H   0  0  0  0  0  0  0  0  0  0  0  0
    7.9400   -1.2520   24.4240 H   0  0  0  0  0  0  0  0  0  0  0  0
    9.1960   -2.3820   22.1440 H   0  0  0  0  0  0  0  0  0  0  0  0
    6.4790   -0.9050   22.2250 H   0  0  0  0  0  0  0  0  0  0  0  0
    4.9640    0.8430   21.4580 H   0  0  0  0  0  0  0  0  0  0  0  0
    4.0590    2.0610   19.3300 H   0  0  0  0  0  0  0  0  0  0  0  0
    5.2490    1.6750   17.1490 H   0  0  0  0  0  0  0  0  0  0  0  0
    7.9900   -0.8720   18.7950 H   0  0  0  0  0  0  0  0  0  0  0  0
   10.6180   -0.1390   21.9480 H   0  0  0  0  0  0  0  0  0  0  0  0
   10.3550    0.6880   23.9370 H   0  0  0  0  0  0  0  0  0  0  0  0
   10.7890   -0.7390   24.8370 H   0  0  0  0  0  0  0  0  0  0  0  0
   12.5800    0.1570   24.9880 H   0  0  0  0  0  0  0  0  0  0  0  0
   12.3870    1.3030   23.7290 H   0  0  0  0  0  0  0  0  0  0  0  0
   13.9390   -0.8200   23.8910 H   0  0  0  0  0  0  0  0  0  0  0  0
   13.8150    0.3990   22.6780 H   0  0  0  0  0  0  0  0  0  0  0  0
   13.3770   -1.1650   21.2650 H   0  0  0  0  0  0  0  0  0  0  0  0
   13.6190   -2.2120   22.5590 H   0  0  0  0  0  0  0  0  0  0  0  0
   11.6450   -2.7880   22.9080 H   0  0  0  0  0  0  0  0  0  0  0  0
   11.4420   -2.2670   21.2700 H   0  0  0  0  0  0  0  0  0  0  0  0
  1  2  1  0
  2  3  2  0
  2  4  2  0
  2  5  1  6
  5  6  1  0
  6  7  1  0
  7  8  1  0
  8  9  2  0
  8 10  1  0
 10 11  1  0
 11 12  2  0
 12 13  1  0
 13 14  2  0
 14 15  1  0
 11 16  1  0
 15 16  2  0
  7 17  1  0
 17 18  1  0
 18 19  1  0
 19 20  1  0
 20 21  1  0
 17 22  1  0
 21 22  1  0
  1 23  1  0
  1 24  1  0
  1 25  1  0
  5 26  1  0
  6 27  1  0
  6 28  1  0
  7 29  1  6
 10 30  1  0
 12 31  1  0
 13 32  1  0
 14 33  1  0
 16 34  1  0
 17 35  1  6
 18 36  1  0
 18 37  1  0
 19 38  1  0
 19 39  1  0
 20 40  1  0
 20 41  1  0
 21 42  1  0
 21 43  1  0
 22 44  1  0
 22 45  1  0
M  END
