
     RDKit          3D

 51 54  0  0  0  0  0  0  0  0999 V2000
    4.0740    3.2430   19.5850 C   0  0  0  0  0  0  0  0  0  0  0  0
    4.9580    2.0610   19.4080 C   0  0  0  0  0  0  0  0  0  0  0  0
    5.0080    1.5210   18.1140 C   0  0  0  0  0  0  0  0  0  0  0  0
    5.8030    0.3520   17.8580 N   0  0  0  0  0  0  0  0  0  0  0  0
    6.5100   -0.2020   18.9760 C   0  0  0  0  0  0  0  0  0  0  0  0
    6.4460    0.4480   20.2710 C   0  0  0  0  0  0  0  0  0  0  0  0
    5.6860    1.5440   20.4990 C   0  0  0  0  0  0  0  0  0  0  0  0
    7.3450   -0.3510   21.1400 N   0  0  0  0  0  0  0  0  0  0  0  0
    8.4940    0.1780   21.8030 C   0  0  0  0  0  0  0  0  0  0  0  0
    9.1200    1.1120   21.2690 O   0  0  0  0  0  0  0  0  0  0  0  0
    8.9810   -0.1950   23.1060 C   0  0  0  0  0  0  0  0  0  0  0  0
   10.2810   -0.9990   23.2810 C   0  0  2  0  0  0  0  0  0  0  0  0
   11.0140   -0.6760   24.5830 C   0  0  0  0  0  0  0  0  0  0  0  0
   12.3370   -0.2760   24.4260 C   0  0  0  0  0  0  0  0  0  0  0  0
   13.1110   -0.9560   23.4760 C   0  0  0  0  0  0  0  0  0  0  0  0
   12.4070   -1.5010   22.4090 C   0  0  0  0  0  0  0  0  0  0  0  0
   11.1620   -0.9080   22.2210 C   0  0  0  0  0  0  0  0  0  0  0  0
    7.3660   -1.6630   20.4420 N   0  0  0  0  0  0  0  0  0  0  0  0
    6.3970   -2.6810   20.7720 C   0  0  0  0  0  0  0  0  0  0  0  0
    5.5640   -3.2450   19.7500 O   0  0  0  0  0  0  0  0  0  0  0  0
    6.2200   -3.1370   22.0390 N   0  0  0  0  0  0  0  0  0  0  0  0
    6.7160   -4.4830   22.3740 C   0  0  1  0  0  0  0  0  0  0  0  0
    6.3050   -5.2340   23.2960 C   0  0  0  0  0  0  0  0  0  0  0  0
    5.8520   -5.8100   22.0640 C   0  0  0  0  0  0  0  0  0  0  0  0
    7.3220   -1.3880   19.0560 C   0  0  0  0  0  0  0  0  0  0  0  0
    3.6260    3.5550   18.6380 H   0  0  0  0  0  0  0  0  0  0  0  0
    3.2680    2.9860   20.2750 H   0  0  0  0  0  0  0  0  0  0  0  0
    4.6620    4.0690   19.9960 H   0  0  0  0  0  0  0  0  0  0  0  0
    4.4820    1.9130   17.2660 H   0  0  0  0  0  0  0  0  0  0  0  0
    5.6290    2.0120   21.4760 H   0  0  0  0  0  0  0  0  0  0  0  0
    8.2740   -0.8360   23.6450 H   0  0  0  0  0  0  0  0  0  0  0  0
    8.9700    0.6820   23.7450 H   0  0  0  0  0  0  0  0  0  0  0  0
   10.0070   -2.0600   23.3570 H   0  0  0  0  0  0  0  0  0  0  0  0
   10.3640    0.0090   25.1380 H   0  0  0  0  0  0  0  0  0  0  0  0
   11.0250   -1.6000   25.1610 H   0  0  0  0  0  0  0  0  0  0  0  0
   12.4960    0.7910   24.2520 H   0  0  0  0  0  0  0  0  0  0  0  0
   12.8090   -0.4370   25.4030 H   0  0  0  0  0  0  0  0  0  0  0  0
   13.8100   -0.1930   23.1580 H   0  0  0  0  0  0  0  0  0  0  0  0
   13.7670   -1.6900   23.9340 H   0  0  0  0  0  0  0  0  0  0  0  0
   13.0050   -1.5330   21.5000 H   0  0  0  0  0  0  0  0  0  0  0  0
   12.1680   -2.5540   22.5520 H   0  0  0  0  0  0  0  0  0  0  0  0
   10.6930   -1.3510   21.3410 H   0  0  0  0  0  0  0  0  0  0  0  0
   11.3000    0.1550   22.0180 H   0  0  0  0  0  0  0  0  0  0  0  0
    6.3690   -2.4160   22.7400 H   0  0  0  0  0  0  0  0  0  0  0  0
    7.8020   -4.5730   22.2790 H   0  0  0  0  0  0  0  0  0  0  0  0
    5.6570   -4.7290   24.0220 H   0  0  0  0  0  0  0  0  0  0  0  0
    7.1470   -5.7530   23.7570 H   0  0  0  0  0  0  0  0  0  0  0  0
    6.3450   -6.6980   21.6960 H   0  0  0  0  0  0  0  0  0  0  0  0
    4.7620   -5.7650   21.9690 H   0  0  0  0  0  0  0  0  0  0  0  0
    6.7720   -2.1880   18.5590 H   0  0  0  0  0  0  0  0  0  0  0  0
    8.2530   -1.2170   18.5750 H   0  0  0  0  0  0  0  0  0  0  0  0
  1  2  1  0
  2  3  2  0
  3  4  1  0
  4  5  2  0
  5  6  1  0
  2  7  1  0
  6  7  2  0
  6  8  1  0
  8  9  1  0
  9 10  2  0
  9 11  1  0
 11 12  1  0
 12 13  1  0
 13 14  1  0
 14 15  1  0
 15 16  1  0
 12 17  1  0
 16 17  1  0
  8 18  1  0
 18 19  1  0
 19 20  2  0
 19 21  1  0
 21 22  1  0
 22 23  1  0
 22 24  1  0
 23 24  1  0
  5 25  1  0
 18 25  1  0
  1 26  1  0
  1 27  1  0
  1 28  1  0
  3 29  1  0
  7 30  1  0
 11 31  1  0
 11 32  1  0
 12 33  1  1
 13 34  1  0
 13 35  1  0
 14 36  1  0
 14 37  1  0
 15 38  1  0
 15 39  1  0
 16 40  1  0
 16 41  1  0
 17 42  1  0
 17 43  1  0
 21 44  1  0
 22 45  1  6
 23 46  1  0
 23 47  1  0
 24 48  1  0
 24 49  1  0
 25 50  1  0
 25 51  1  0
M  END
