
     RDKit          3D

 53 56  0  0  0  0  0  0  0  0999 V2000
   12.4630   -1.9110   24.9030 C   0  0  0  0  0  0  0  0  0  0  0  0
   12.1560   -0.4360   24.7360 C   0  0  1  0  0  0  0  0  0  0  0  0
   12.0870   -0.3620   23.3780 C   0  0  2  0  0  0  0  0  0  0  0  0
   12.5010   -1.2340   22.2930 C   0  0  0  0  0  0  0  0  0  0  0  0
   11.0070   -1.2410   22.0990 C   0  0  0  0  0  0  0  0  0  0  0  0
   10.2990   -0.6900   23.2300 C   0  0  2  0  0  0  0  0  0  0  0  0
    8.8460   -0.3540   22.9490 C   0  0  0  0  0  0  0  0  0  0  0  0
    8.5950    0.2110   21.6930 C   0  0  0  0  0  0  0  0  0  0  0  0
    9.2630    1.4060   21.3100 O   0  0  0  0  0  0  0  0  0  0  0  0
    7.6480   -0.4960   21.0030 N   0  0  0  0  0  0  0  0  0  0  0  0
    6.7990    0.1020   20.0780 C   0  0  0  0  0  0  0  0  0  0  0  0
    5.5940    0.9770   20.3850 C   0  0  0  0  0  0  0  0  0  0  0  0
    4.8770    1.4970   19.3320 C   0  0  0  0  0  0  0  0  0  0  0  0
    5.2760    1.2080   18.0440 C   0  0  0  0  0  0  0  0  0  0  0  0
    6.3240    0.4420   17.7070 N   0  0  0  0  0  0  0  0  0  0  0  0
    7.0700   -0.1040   18.7430 C   0  0  0  0  0  0  0  0  0  0  0  0
   11.0200    0.5480   24.0050 C   0  0  1  0  0  0  0  0  0  0  0  0
   10.2080    1.7380   24.3420 C   0  0  0  0  0  0  0  0  0  0  0  0
   10.5800    2.9670   23.3930 C   0  0  1  0  0  0  0  0  0  0  0  0
    9.9460    4.6380   23.8750 S   0  0  2  0  0  0  0  0  0  0  0  0
    8.7990    4.9490   22.6930 N   0  0  0  0  0  0  0  0  0  0  0  0
   11.0050    5.6080   23.6540 O   0  0  0  0  0  0  0  0  0  0  0  0
    9.1660    4.7170   25.0950 O   0  0  0  0  0  0  0  0  0  0  0  0
   11.8830    3.1920   22.9810 C   0  0  0  0  0  0  0  0  0  0  0  0
   12.6390    2.0650   22.7590 C   0  0  0  0  0  0  0  0  0  0  0  0
   12.4350    1.0190   23.5870 C   0  0  2  0  0  0  0  0  0  0  0  0
   13.0800   -2.2840   24.0820 H   0  0  0  0  0  0  0  0  0  0  0  0
   13.0370   -2.0670   25.8150 H   0  0  0  0  0  0  0  0  0  0  0  0
   11.5400   -2.4810   24.9190 H   0  0  0  0  0  0  0  0  0  0  0  0
   13.0260    0.1010   25.0540 H   0  0  0  0  0  0  0  0  0  0  0  0
   11.0180   -0.3730   23.1690 H   0  0  0  0  0  0  0  0  0  0  0  0
   12.9430   -2.1880   22.5960 H   0  0  0  0  0  0  0  0  0  0  0  0
   13.0960   -0.7340   21.5300 H   0  0  0  0  0  0  0  0  0  0  0  0
   10.6420   -0.9350   21.1330 H   0  0  0  0  0  0  0  0  0  0  0  0
   10.7310   -2.3050   22.1120 H   0  0  0  0  0  0  0  0  0  0  0  0
   10.3480   -1.4210   24.0400 H   0  0  0  0  0  0  0  0  0  0  0  0
    8.3280    0.1720   23.7540 H   0  0  0  0  0  0  0  0  0  0  0  0
    8.3540   -1.3260   22.8870 H   0  0  0  0  0  0  0  0  0  0  0  0
    7.8570   -1.4740   20.8320 H   0  0  0  0  0  0  0  0  0  0  0  0
    5.3750    1.1410   21.4440 H   0  0  0  0  0  0  0  0  0  0  0  0
    3.9990    2.1370   19.4190 H   0  0  0  0  0  0  0  0  0  0  0  0
    4.6530    1.6670   17.2700 H   0  0  0  0  0  0  0  0  0  0  0  0
    7.9080   -0.7210   18.4130 H   0  0  0  0  0  0  0  0  0  0  0  0
   10.0410    2.1280   25.3130 H   0  0  0  0  0  0  0  0  0  0  0  0
    9.1800    1.4560   24.0890 H   0  0  0  0  0  0  0  0  0  0  0  0
   10.0120    2.7990   22.4730 H   0  0  0  0  0  0  0  0  0  0  0  0
    9.2380    5.0070   21.7630 H   0  0  0  0  0  0  0  0  0  0  0  0
    8.0590    4.2600   22.7380 H   0  0  0  0  0  0  0  0  0  0  0  0
   11.7820    3.6480   21.9870 H   0  0  0  0  0  0  0  0  0  0  0  0
   12.3800    3.9850   23.5240 H   0  0  0  0  0  0  0  0  0  0  0  0
   13.7090    2.1890   22.6960 H   0  0  0  0  0  0  0  0  0  0  0  0
   12.3930    1.7120   21.8240 H   0  0  0  0  0  0  0  0  0  0  0  0
   13.0380    1.1540   24.4060 H   0  0  0  0  0  0  0  0  0  0  0  0
  1  2  1  0
  2  3  1  0
  3  4  1  0
  4  5  1  0
  5  6  1  0
  6  7  1  0
  7  8  1  0
  8  9  2  0
  8 10  1  0
 10 11  1  0
 11 12  2  0
 12 13  1  0
 13 14  2  0
 14 15  1  0
 11 16  1  0
 15 16  2  0
  2 17  1  0
  6 17  1  0
 17 18  1  1
 18 19  1  0
 19 20  1  0
 20 21  1  6
 20 22  2  0
 20 23  2  0
 19 24  1  0
 24 25  1  0
  3 26  1  0
 17 26  1  0
 25 26  1  0
  1 27  1  0
  1 28  1  0
  1 29  1  0
  2 30  1  1
  3 31  1  1
  4 32  1  0
  4 33  1  0
  5 34  1  0
  5 35  1  0
  6 36  1  1
  7 37  1  0
  7 38  1  0
 10 39  1  0
 12 40  1  0
 13 41  1  0
 14 42  1  0
 16 43  1  0
 18 44  1  0
 18 45  1  0
 19 46  1  6
 21 47  1  0
 21 48  1  0
 24 49  1  0
 24 50  1  0
 25 51  1  0
 25 52  1  0
 26 53  1  1
M  END
