LIG
     RDKit          3D

 55 58  0  0  0  0  0  0  0  0999 V2000
    5.5720    3.8030   30.8520 C   0  0  0  0  0  0  0  0  0  0  0  0
    6.0790    2.6860   29.9860 C   0  0  0  0  0  0  0  0  0  0  0  0
    7.2890    2.7860   29.3270 C   0  0  0  0  0  0  0  0  0  0  0  0
    7.7660    1.7610   28.5270 C   0  0  0  0  0  0  0  0  0  0  0  0
    7.0230    0.5950   28.3850 C   0  0  0  0  0  0  0  0  0  0  0  0
    7.4530   -0.4560   27.6150 O   0  0  0  0  0  0  0  0  0  0  0  0
    8.3750   -0.1600   26.5780 C   0  0  0  0  0  0  0  0  0  0  0  0
    8.7900   -1.4080   25.8100 C   0  0  0  0  0  0  0  0  0  0  0  0
    7.9610   -2.2960   25.6070 O   0  0  0  0  0  0  0  0  0  0  0  0
   10.0690   -1.4770   25.3800 N   0  0  0  0  0  0  0  0  0  0  0  0
   11.8910   -0.2575   25.0975 C   0  0  0  0  0  0  0  0  0  0  0  0
   11.4980   -0.2465   24.3625 C   0  0  0  0  0  0  0  0  0  0  0  0
   10.9230   -0.0800   23.0900 C   0  0  0  0  0  0  0  0  0  0  0  0
    9.4090   -0.1550   23.0330 C   0  0  0  0  0  0  0  0  0  0  0  0
    8.8650    0.3120   21.6960 C   0  0  0  0  0  0  0  0  0  0  0  0
    9.4190    1.1020   21.0000 O   0  0  0  0  0  0  0  0  0  0  0  0
    7.6120   -0.2560   21.3260 N   0  0  0  0  0  0  0  0  0  0  0  0
    7.0000    0.1710   20.1090 C   0  0  0  0  0  0  0  0  0  0  0  0
    5.7560    0.7730   20.2490 C   0  0  0  0  0  0  0  0  0  0  0  0
    5.1420    1.2080   19.0830 C   0  0  0  0  0  0  0  0  0  0  0  0
    5.8050    1.0240   17.8770 C   0  0  0  0  0  0  0  0  0  0  0  0
    7.0000    0.4540   17.8140 N   0  0  0  0  0  0  0  0  0  0  0  0
    7.6260    0.0260   18.8870 C   0  0  0  0  0  0  0  0  0  0  0  0
   11.5035   -1.7005   22.8165 C   0  0  0  0  0  0  0  0  0  0  0  0
   10.6760   -2.6770   24.8000 C   0  0  0  0  0  0  0  0  0  0  0  0
   13.0175   -1.0750   23.6970 N   0  0  0  0  0  0  0  0  0  0  0  0
   13.0180   -1.3705   22.6055 C   0  0  0  0  0  0  0  0  0  0  0  0
    5.8090    0.4760   29.0440 C   0  0  0  0  0  0  0  0  0  0  0  0
    5.3530    1.5210   29.8320 C   0  0  0  0  0  0  0  0  0  0  0  0
    6.3518    4.5552   31.0109 H   0  0  0  0  0  0  0  0  0  0  0  0
    6.1557    3.8776   31.7751 H   0  0  0  0  0  0  0  0  0  0  0  0
    5.2534    3.4093   31.8218 H   0  0  0  0  0  0  0  0  0  0  0  0
    7.8963    3.6959   29.4352 H   0  0  0  0  0  0  0  0  0  0  0  0
    8.7168    1.9008   28.0256 H   0  0  0  0  0  0  0  0  0  0  0  0
    7.9031    0.5297   25.8619 H   0  0  0  0  0  0  0  0  0  0  0  0
    9.2807    0.2895   27.0126 H   0  0  0  0  0  0  0  0  0  0  0  0
   12.3777   -1.2271   25.6310 H   0  0  0  0  0  0  0  0  0  0  0  0
   11.4890    0.2325   26.1166 H   0  0  0  0  0  0  0  0  0  0  0  0
   12.4008    1.0516   24.0939 H   0  0  0  0  0  0  0  0  0  0  0  0
   11.2487    0.5630   22.3850 H   0  0  0  0  0  0  0  0  0  0  0  0
    8.9262    0.4488   23.7993 H   0  0  0  0  0  0  0  0  0  0  0  0
    9.0976   -1.1907   23.1879 H   0  0  0  0  0  0  0  0  0  0  0  0
    7.1865   -0.8871   21.8869 H   0  0  0  0  0  0  0  0  0  0  0  0
    5.2797    0.9065   21.1916 H   0  0  0  0  0  0  0  0  0  0  0  0
    4.1661    1.6836   19.1027 H   0  0  0  0  0  0  0  0  0  0  0  0
    5.3681    1.3410   16.9442 H   0  0  0  0  0  0  0  0  0  0  0  0
    8.5747   -0.4073   18.7475 H   0  0  0  0  0  0  0  0  0  0  0  0
   11.4554   -2.2924   22.3181 H   0  0  0  0  0  0  0  0  0  0  0  0
   11.6194   -2.9379   25.0806 H   0  0  0  0  0  0  0  0  0  0  0  0
   10.0983   -3.3130   24.2467 H   0  0  0  0  0  0  0  0  0  0  0  0
   12.0123   -1.7359   22.1574 H   0  0  0  0  0  0  0  0  0  0  0  0
   13.2604   -0.5377   21.8355 H   0  0  0  0  0  0  0  0  0  0  0  0
   12.3243   -0.8674   21.8028 H   0  0  0  0  0  0  0  0  0  0  0  0
    5.2218   -0.4280   28.9421 H   0  0  0  0  0  0  0  0  0  0  0  0
    4.3846    1.4046   30.3459 H   0  0  0  0  0  0  0  0  0  0  0  0
  1  2  1  0
  2  3  4  0
  3  4  4  0
  4  5  4  0
  5  6  1  0
  6  7  1  0
  7  8  1  0
  8  9  2  0
  8 10  1  0
 10 11  1  0
 11 12  1  0
 12 13  1  0
 13 14  1  0
 14 15  1  0
 15 16  2  0
 15 17  1  0
 17 18  1  0
 18 19  4  0
 19 20  4  0
 20 21  4  0
 21 22  4  0
 22 23  4  0
 13 24  1  0
 24 25  1  0
 24 26  1  0
 26 27  1  0
  5 28  4  0
 28 29  4  0
 29  2  4  0
 25 10  1  0
 26 12  1  0
 23 18  4  0
  1 30  1  0
  1 31  1  0
  1 32  1  0
  3 33  1  0
  4 34  1  0
  7 35  1  0
  7 36  1  0
 11 37  1  0
 11 38  1  0
 12 39  1  0
 13 40  1  0
 14 41  1  0
 14 42  1  0
 17 43  1  0
 19 44  1  0
 20 45  1  0
 21 46  1  0
 23 47  1  0
 24 48  1  0
 25 49  1  0
 25 50  1  0
 27 51  1  0
 27 52  1  0
 27 53  1  0
 28 54  1  0
 29 55  1  0
M  END
