LIG
     RDKit          3D

 36 37  0  0  0  0  0  0  0  0999 V2000
    3.7110    2.1190   19.5450 N   0  0  0  0  0  0  0  0  0  0  0  0
    4.9105    1.2450   19.1120 C   0  0  0  0  0  0  0  0  0  0  0  0
    5.5475    1.2135   17.8705 C   0  0  0  0  0  0  0  0  0  0  0  0
    6.6145    0.5005   17.6255 N   0  0  0  0  0  0  0  0  0  0  0  0
    7.0950   -0.2130   18.5810 C   0  0  0  0  0  0  0  0  0  0  0  0
    6.5245   -0.2505   19.8205 C   0  0  0  0  0  0  0  0  0  0  0  0
    7.6120   -0.2560   21.3260 N   0  0  0  0  0  0  0  0  0  0  0  0
    8.8650    0.3120   21.6960 C   0  0  0  0  0  0  0  0  0  0  0  0
    9.4190    1.1020   21.0000 O   0  0  0  0  0  0  0  0  0  0  0  0
    9.4090   -0.1550   23.0330 C   0  0  0  0  0  0  0  0  0  0  0  0
   10.9230   -0.0800   23.0900 C   0  0  0  0  0  0  0  0  0  0  0  0
   11.2810   -0.4020   24.5270 C   0  0  0  0  0  0  0  0  0  0  0  0
   12.7710   -0.1530   24.6900 C   0  0  0  0  0  0  0  0  0  0  0  0
   13.6100   -0.8590   23.6290 C   0  0  0  0  0  0  0  0  0  0  0  0
   12.8180   -1.7130   22.6470 C   0  0  0  0  0  0  0  0  0  0  0  0
   11.5620   -1.0470   22.0960 C   0  0  0  0  0  0  0  0  0  0  0  0
    5.4390    0.4880   20.0990 C   0  0  0  0  0  0  0  0  0  0  0  0
    3.0885    1.5831   20.0977 H   0  0  0  0  0  0  0  0  0  0  0  0
    4.0259    2.9758   19.9224 H   0  0  0  0  0  0  0  0  0  0  0  0
    5.1597    1.7996   17.0448 H   0  0  0  0  0  0  0  0  0  0  0  0
    7.9786   -0.7936   18.3440 H   0  0  0  0  0  0  0  0  0  0  0  0
    7.0863   -0.8621   21.9789 H   0  0  0  0  0  0  0  0  0  0  0  0
    8.9637    0.4450   23.8294 H   0  0  0  0  0  0  0  0  0  0  0  0
    9.0816   -1.1902   23.1596 H   0  0  0  0  0  0  0  0  0  0  0  0
   11.2304    0.9311   22.8670 H   0  0  0  0  0  0  0  0  0  0  0  0
   10.7380    0.2459   25.1898 H   0  0  0  0  0  0  0  0  0  0  0  0
   11.0705   -1.4241   24.7780 H   0  0  0  0  0  0  0  0  0  0  0  0
   13.0955   -0.4989   25.6849 H   0  0  0  0  0  0  0  0  0  0  0  0
   12.9731    0.9289   24.6681 H   0  0  0  0  0  0  0  0  0  0  0  0
   14.3855   -1.4849   24.1197 H   0  0  0  0  0  0  0  0  0  0  0  0
   14.1862   -0.0928   23.0658 H   0  0  0  0  0  0  0  0  0  0  0  0
   13.4830   -1.9985   21.8152 H   0  0  0  0  0  0  0  0  0  0  0  0
   12.5295   -2.6620   23.1284 H   0  0  0  0  0  0  0  0  0  0  0  0
   11.8141   -0.5317   21.1559 H   0  0  0  0  0  0  0  0  0  0  0  0
   10.8305   -1.8255   21.8227 H   0  0  0  0  0  0  0  0  0  0  0  0
    4.9755    0.4930   21.0800 H   0  0  0  0  0  0  0  0  0  0  0  0
  1  2  1  0
  2  3  4  0
  3  4  4  0
  4  5  4  0
  5  6  4  0
  6  7  1  0
  7  8  1  0
  8  9  2  0
  8 10  1  0
 10 11  1  0
 11 12  1  0
 12 13  1  0
 13 14  1  0
 14 15  1  0
 15 16  1  0
  6 17  4  0
 17  2  4  0
 16 11  1  0
  1 18  1  0
  1 19  1  0
  3 20  1  0
  5 21  1  0
  7 22  1  0
 10 23  1  0
 10 24  1  0
 11 25  1  0
 12 26  1  0
 12 27  1  0
 13 28  1  0
 13 29  1  0
 14 30  1  0
 14 31  1  0
 15 32  1  0
 15 33  1  0
 16 34  1  0
 16 35  1  0
 17 36  1  0
M  END
