LIG
     RDKit          3D

 45 46  0  0  0  0  0  0  0  0999 V2000
    6.4340   -4.9520   26.5780 C   0  0  0  0  0  0  0  0  0  0  0  0
    8.0950   -4.3580   26.1540 S   0  0  0  0  0  6  0  0  0  0  0  0
    9.0830   -5.4410   26.1700 O   0  0  0  0  0  0  0  0  0  0  0  0
    8.6390   -3.5100   27.2010 O   0  0  0  0  0  0  0  0  0  0  0  0
    8.0610   -3.5350   24.6620 N   0  0  0  0  0  0  0  0  0  0  0  0
    9.3140   -3.0270   24.1660 C   0  0  0  0  0  0  0  0  0  0  0  0
    9.3095   -0.9515   23.1900 C   0  0  0  0  0  0  0  0  0  0  0  0
    8.8650    0.3120   21.6960 C   0  0  0  0  0  0  0  0  0  0  0  0
    9.4190    1.1020   21.0000 O   0  0  0  0  0  0  0  0  0  0  0  0
    7.6120   -0.2560   21.3260 N   0  0  0  0  0  0  0  0  0  0  0  0
    7.0000    0.1710   20.1090 C   0  0  0  0  0  0  0  0  0  0  0  0
    5.7560    0.7730   20.2490 C   0  0  0  0  0  0  0  0  0  0  0  0
    5.1420    1.2080   19.0830 C   0  0  0  0  0  0  0  0  0  0  0  0
    5.8050    1.0240   17.8770 C   0  0  0  0  0  0  0  0  0  0  0  0
    7.0000    0.4540   17.8140 N   0  0  0  0  0  0  0  0  0  0  0  0
    7.6260    0.0260   18.8870 C   0  0  0  0  0  0  0  0  0  0  0  0
   10.7635   -0.6110   23.2415 C   0  0  0  0  0  0  0  0  0  0  0  0
   11.0950   -0.2490   24.3905 C   0  0  0  0  0  0  0  0  0  0  0  0
   12.4845    0.1285   24.4840 C   0  0  0  0  0  0  0  0  0  0  0  0
   13.3945   -0.5010   23.5495 C   0  0  0  0  0  0  0  0  0  0  0  0
   12.8445   -1.4550   22.6335 C   0  0  0  0  0  0  0  0  0  0  0  0
   11.5725   -1.3700   22.3430 C   0  0  0  0  0  0  0  0  0  0  0  0
    5.9185   -5.2272   25.6635 H   0  0  0  0  0  0  0  0  0  0  0  0
    5.9198   -4.1297   27.0703 H   0  0  0  0  0  0  0  0  0  0  0  0
    6.5406   -5.7945   27.2557 H   0  0  0  0  0  0  0  0  0  0  0  0
    7.2094   -3.0398   24.4879 H   0  0  0  0  0  0  0  0  0  0  0  0
    9.7986   -3.5037   23.3231 H   0  0  0  0  0  0  0  0  0  0  0  0
   10.0910   -2.7509   24.8789 H   0  0  0  0  0  0  0  0  0  0  0  0
   10.0937   -1.8124   21.9248 H   0  0  0  0  0  0  0  0  0  0  0  0
    7.1651   -0.8356   21.9234 H   0  0  0  0  0  0  0  0  0  0  0  0
    5.2812    0.9048   21.1938 H   0  0  0  0  0  0  0  0  0  0  0  0
    4.1655    1.6818   19.1045 H   0  0  0  0  0  0  0  0  0  0  0  0
    5.3675    1.3395   16.9446 H   0  0  0  0  0  0  0  0  0  0  0  0
    8.5742   -0.4105   18.7501 H   0  0  0  0  0  0  0  0  0  0  0  0
   10.6779    0.4849   22.5982 H   0  0  0  0  0  0  0  0  0  0  0  0
   10.5054    0.6396   24.7872 H   0  0  0  0  0  0  0  0  0  0  0  0
   10.9325   -1.0076   25.2273 H   0  0  0  0  0  0  0  0  0  0  0  0
   12.8588   -0.0601   25.5399 H   0  0  0  0  0  0  0  0  0  0  0  0
   12.5806    1.2580   24.4124 H   0  0  0  0  0  0  0  0  0  0  0  0
   14.2645   -0.9711   24.1206 H   0  0  0  0  0  0  0  0  0  0  0  0
   13.9412    0.3172   22.9698 H   0  0  0  0  0  0  0  0  0  0  0  0
   13.5157   -1.4295   21.6945 H   0  0  0  0  0  0  0  0  0  0  0  0
   13.1189   -2.5065   23.0205 H   0  0  0  0  0  0  0  0  0  0  0  0
   11.0860   -2.4133   22.2366 H   0  0  0  0  0  0  0  0  0  0  0  0
   11.4198   -0.9964   21.2616 H   0  0  0  0  0  0  0  0  0  0  0  0
  1  2  1  0
  2  3  2  0
  2  4  2  0
  2  5  1  0
  5  6  1  0
  6  7  1  0
  7  8  1  0
  8  9  2  0
  8 10  1  0
 10 11  1  0
 11 12  4  0
 12 13  4  0
 13 14  4  0
 14 15  4  0
 15 16  4  0
  7 17  1  0
 17 18  1  0
 18 19  1  0
 19 20  1  0
 20 21  1  0
 21 22  1  0
 16 11  4  0
 22 17  1  0
  1 23  1  0
  1 24  1  0
  1 25  1  0
  5 26  1  0
  6 27  1  0
  6 28  1  0
  7 29  1  0
 10 30  1  0
 12 31  1  0
 13 32  1  0
 14 33  1  0
 16 34  1  0
 17 35  1  0
 18 36  1  0
 18 37  1  0
 19 38  1  0
 19 39  1  0
 20 40  1  0
 20 41  1  0
 21 42  1  0
 21 43  1  0
 22 44  1  0
 22 45  1  0
M  END
