
     RDKit          3D

 61 64  0  0  0  0  0  0  0  0999 V2000
    9.3190    1.5130   21.4040 O   0  0  0  0  0  0  0  0  0  0  0  0
    8.8940    0.2480   21.9250 C   0  0  0  0  0  0  0  0  0  0  0  0
    9.5200   -0.2410   23.2020 C   0  0  0  0  0  0  0  0  0  0  0  0
   10.4850   -1.2470   23.1280 C   0  0  2  0  0  0  0  0  0  0  0  0
   11.2340   -1.6040   24.3850 C   0  0  0  0  0  0  0  0  0  0  0  0
   12.6220   -1.0760   24.2200 C   0  0  0  0  0  0  0  0  0  0  0  0
   13.3790   -1.5810   23.1990 C   0  0  0  0  0  0  0  0  0  0  0  0
   12.4060   -2.0440   22.1400 C   0  0  0  0  0  0  0  0  0  0  0  0
   11.3970   -1.0790   22.1240 C   0  0  0  0  0  0  0  0  0  0  0  0
    7.8480   -0.5170   21.2700 N   0  0  0  0  0  0  0  0  0  0  0  0
    7.1960    0.5680   20.7090 C   0  0  1  0  0  0  0  0  0  0  0  0
    6.8980    0.7430   19.2350 C   0  0  2  0  0  0  0  0  0  0  0  0
    6.3610   -0.1290   18.3160 N   0  0  0  0  0  0  0  0  0  0  0  0
    5.1420    0.5360   17.9120 C   0  0  0  0  0  0  0  0  0  0  0  0
    4.3760    1.4330   18.6430 C   0  0  0  0  0  0  0  0  0  0  0  0
    4.7240    1.5910   19.9770 C   0  0  1  0  0  0  0  0  0  0  0  0
    3.7450    1.5930   20.9620 C   0  0  0  0  0  0  0  0  0  0  0  0
    4.1740    1.7820   22.2950 C   0  0  0  0  0  0  0  0  0  0  0  0
    3.2060    2.5550   23.1000 N   0  0  0  0  0  0  0  0  0  0  0  0
    2.1530    1.8790   23.8800 C   0  0  0  0  0  0  0  0  0  0  0  0
    2.0510    0.4720   24.0540 O   0  0  0  0  0  0  0  0  0  0  0  0
    1.1610    2.6020   24.5340 C   0  0  0  0  0  0  0  0  0  0  0  0
   -0.1490    2.1210   24.5480 C   0  0  0  0  0  0  0  0  0  0  0  0
   -1.2130    2.7790   25.1820 C   0  0  0  0  0  0  0  0  0  0  0  0
   -0.9810    4.0950   25.9090 C   0  0  0  0  0  0  0  0  0  0  0  0
    0.4640    4.6570   25.9120 C   0  0  0  0  0  0  0  0  0  0  0  0
    1.4640    3.8130   25.1830 C   0  0  0  0  0  0  0  0  0  0  0  0
    2.7250    4.2790   25.1730 F   0  0  0  0  0  0  0  0  0  0  0  0
    5.7750    0.5780   20.2900 C   0  0  2  0  0  0  0  0  0  0  0  0
    8.7060   -0.6030   23.8460 H   0  0  0  0  0  0  0  0  0  0  0  0
    9.9720    0.6150   23.7080 H   0  0  0  0  0  0  0  0  0  0  0  0
    9.9500   -2.1640   22.8460 H   0  0  0  0  0  0  0  0  0  0  0  0
   10.7220   -1.1340   25.2160 H   0  0  0  0  0  0  0  0  0  0  0  0
   11.3120   -2.6480   24.6690 H   0  0  0  0  0  0  0  0  0  0  0  0
   12.4440   -0.0150   24.1490 H   0  0  0  0  0  0  0  0  0  0  0  0
   13.1700   -1.0760   25.1590 H   0  0  0  0  0  0  0  0  0  0  0  0
   13.8720   -0.7030   22.7750 H   0  0  0  0  0  0  0  0  0  0  0  0
   14.1750   -2.2850   23.3540 H   0  0  0  0  0  0  0  0  0  0  0  0
   12.8700   -2.1960   21.1630 H   0  0  0  0  0  0  0  0  0  0  0  0
   11.9770   -3.0130   22.3670 H   0  0  0  0  0  0  0  0  0  0  0  0
   11.7210   -0.0410   22.1730 H   0  0  0  0  0  0  0  0  0  0  0  0
   10.7970   -1.1110   21.2120 H   0  0  0  0  0  0  0  0  0  0  0  0
    8.1050   -1.2780   20.6300 H   0  0  0  0  0  0  0  0  0  0  0  0
    7.4740    1.4700   21.2500 H   0  0  0  0  0  0  0  0  0  0  0  0
    7.0790    1.6950   18.7820 H   0  0  0  0  0  0  0  0  0  0  0  0
    6.9500   -0.2170   17.4770 H   0  0  0  0  0  0  0  0  0  0  0  0
    4.4740   -0.2460   17.5610 H   0  0  0  0  0  0  0  0  0  0  0  0
    5.4430    1.0840   17.0160 H   0  0  0  0  0  0  0  0  0  0  0  0
    3.3800    0.9870   18.6600 H   0  0  0  0  0  0  0  0  0  0  0  0
    4.2320    2.3640   18.1040 H   0  0  0  0  0  0  0  0  0  0  0  0
    5.2420    2.5620   20.0570 H   0  0  0  0  0  0  0  0  0  0  0  0
    3.2290    0.6260   20.9620 H   0  0  0  0  0  0  0  0  0  0  0  0
    2.9850    2.3470   20.7240 H   0  0  0  0  0  0  0  0  0  0  0  0
    4.3840    0.8110   22.7590 H   0  0  0  0  0  0  0  0  0  0  0  0
    5.1190    2.3440   22.3040 H   0  0  0  0  0  0  0  0  0  0  0  0
    3.4420    3.5150   23.3300 H   0  0  0  0  0  0  0  0  0  0  0  0
   -0.4500    1.1840   24.0620 H   0  0  0  0  0  0  0  0  0  0  0  0
   -2.2110    2.3420   25.1500 H   0  0  0  0  0  0  0  0  0  0  0  0
   -1.7960    4.6200   26.4050 H   0  0  0  0  0  0  0  0  0  0  0  0
    0.7380    5.5880   26.4010 H   0  0  0  0  0  0  0  0  0  0  0  0
    5.2920   -0.3970   20.4120 H   0  0  0  0  0  0  0  0  0  0  0  0
  1  2  2  0
  2  3  1  0
  3  4  1  0
  4  5  1  0
  5  6  1  0
  6  7  1  0
  7  8  1  0
  4  9  1  0
  8  9  1  0
  2 10  1  0
 10 11  1  0
 11 12  1  0
 12 13  1  0
 13 14  1  0
 14 15  1  0
 15 16  1  0
 16 17  1  0
 17 18  1  0
 18 19  1  0
 19 20  1  0
 20 21  2  0
 20 22  1  0
 22 23  2  0
 23 24  1  0
 24 25  2  0
 25 26  1  0
 22 27  1  0
 26 27  2  0
 27 28  1  0
 11 29  1  0
 12 29  1  0
 16 29  1  0
  3 30  1  0
  3 31  1  0
  4 32  1  6
  5 33  1  0
  5 34  1  0
  6 35  1  0
  6 36  1  0
  7 37  1  0
  7 38  1  0
  8 39  1  0
  8 40  1  0
  9 41  1  0
  9 42  1  0
 10 43  1  0
 11 44  1  1
 12 45  1  6
 13 46  1  0
 14 47  1  0
 14 48  1  0
 15 49  1  0
 15 50  1  0
 16 51  1  6
 17 52  1  0
 17 53  1  0
 18 54  1  0
 18 55  1  0
 19 56  1  0
 23 57  1  0
 24 58  1  0
 25 59  1  0
 26 60  1  0
 29 61  1  6
M  END
