
     RDKit          3D

 55 58  0  0  0  0  0  0  0  0999 V2000
    5.6510    3.8130   30.8780 C   0  0  0  0  0  0  0  0  0  0  0  0
    6.0940    2.6850   29.9890 C   0  0  0  0  0  0  0  0  0  0  0  0
    7.2610    2.8290   29.2190 C   0  0  0  0  0  0  0  0  0  0  0  0
    7.7180    1.6850   28.3090 C   0  0  0  0  0  0  0  0  0  0  0  0
    6.9060    0.4360   28.2650 C   0  0  0  0  0  0  0  0  0  0  0  0
    7.3930   -0.5220   27.4230 O   0  0  0  0  0  0  0  0  0  0  0  0
    8.3130   -0.1130   26.4070 C   0  0  0  0  0  0  0  0  0  0  0  0
    8.6400   -1.2870   25.4920 C   0  0  0  0  0  0  0  0  0  0  0  0
    7.7380   -2.0530   25.1330 O   0  0  0  0  0  0  0  0  0  0  0  0
    9.9790   -1.4930   25.1160 N   0  0  0  0  0  0  0  0  0  0  0  0
   10.9720   -0.4420   25.0980 C   0  0  0  0  0  0  0  0  0  0  0  0
   11.5870   -0.3860   23.7470 C   0  0  2  0  0  0  0  0  0  0  0  0
   10.5580   -0.5110   22.6580 C   0  0  2  0  0  0  0  0  0  0  0  0
    9.2830   -0.0120   22.8550 C   0  0  0  0  0  0  0  0  0  0  0  0
    8.6010    0.3780   21.7080 C   0  0  0  0  0  0  0  0  0  0  0  0
    9.0730    1.4290   21.2400 O   0  0  0  0  0  0  0  0  0  0  0  0
    7.5630   -0.3440   21.2410 N   0  0  0  0  0  0  0  0  0  0  0  0
    6.8440    0.1730   20.1840 C   0  0  0  0  0  0  0  0  0  0  0  0
    5.8040    1.0450   20.4750 C   0  0  0  0  0  0  0  0  0  0  0  0
    5.0290    1.6150   19.4530 C   0  0  0  0  0  0  0  0  0  0  0  0
    5.3460    1.2670   18.0150 C   0  0  0  0  0  0  0  0  0  0  0  0
    6.3410    0.4280   17.7080 N   0  0  0  0  0  0  0  0  0  0  0  0
    7.1150   -0.1390   18.8680 C   0  0  0  0  0  0  0  0  0  0  0  0
   10.9380   -2.0110   22.9110 C   0  0  2  0  0  0  0  0  0  0  0  0
   10.3090   -2.5330   24.0560 C   0  0  0  0  0  0  0  0  0  0  0  0
   12.1650   -1.5720   23.3170 N   0  0  0  0  0  0  0  0  0  0  0  0
   13.0980   -1.4150   22.2290 C   0  0  0  0  0  0  0  0  0  0  0  0
    5.7590    0.3450   29.0500 C   0  0  0  0  0  0  0  0  0  0  0  0
    5.3660    1.4930   29.9130 C   0  0  0  0  0  0  0  0  0  0  0  0
    5.9760    4.7840   30.4930 H   0  0  0  0  0  0  0  0  0  0  0  0
    6.0860    3.6790   31.8730 H   0  0  0  0  0  0  0  0  0  0  0  0
    4.5600    3.8070   30.9490 H   0  0  0  0  0  0  0  0  0  0  0  0
    7.8500    3.7410   29.2540 H   0  0  0  0  0  0  0  0  0  0  0  0
    8.5900    1.6720   27.6700 H   0  0  0  0  0  0  0  0  0  0  0  0
    7.9310    0.7240   25.8100 H   0  0  0  0  0  0  0  0  0  0  0  0
    9.2510    0.2310   26.8580 H   0  0  0  0  0  0  0  0  0  0  0  0
   11.7910   -0.6350   25.7750 H   0  0  0  0  0  0  0  0  0  0  0  0
   10.4190    0.4020   25.4460 H   0  0  0  0  0  0  0  0  0  0  0  0
   12.1660    0.5380   23.6130 H   0  0  0  0  0  0  0  0  0  0  0  0
   10.9310   -0.1330   21.7280 H   0  0  0  0  0  0  0  0  0  0  0  0
    9.4050    0.8800   23.4770 H   0  0  0  0  0  0  0  0  0  0  0  0
    8.7350   -0.6830   23.5160 H   0  0  0  0  0  0  0  0  0  0  0  0
    7.0360   -0.8980   21.9210 H   0  0  0  0  0  0  0  0  0  0  0  0
    5.6510    1.2390   21.5420 H   0  0  0  0  0  0  0  0  0  0  0  0
    4.2060    2.3050   19.6680 H   0  0  0  0  0  0  0  0  0  0  0  0
    4.7840    1.6820   17.1850 H   0  0  0  0  0  0  0  0  0  0  0  0
    7.9110   -0.8190   18.5870 H   0  0  0  0  0  0  0  0  0  0  0  0
   10.9670   -2.6100   22.0050 H   0  0  0  0  0  0  0  0  0  0  0  0
    9.3720   -3.0330   23.7780 H   0  0  0  0  0  0  0  0  0  0  0  0
   10.9530   -3.2920   24.5190 H   0  0  0  0  0  0  0  0  0  0  0  0
   13.9910   -1.9650   22.4940 H   0  0  0  0  0  0  0  0  0  0  0  0
   13.3840   -0.3630   22.1290 H   0  0  0  0  0  0  0  0  0  0  0  0
   12.7740   -1.7710   21.2550 H   0  0  0  0  0  0  0  0  0  0  0  0
    5.1290   -0.5440   29.0580 H   0  0  0  0  0  0  0  0  0  0  0  0
    4.4480    1.3090   30.4840 H   0  0  0  0  0  0  0  0  0  0  0  0
  1  2  1  0
  2  3  2  0
  3  4  1  0
  4  5  2  0
  5  6  1  0
  6  7  1  0
  7  8  1  0
  8  9  2  0
  8 10  1  0
 10 11  1  0
 11 12  1  0
 12 13  1  0
 13 14  1  0
 14 15  1  0
 15 16  2  0
 15 17  1  0
 17 18  1  0
 18 19  2  0
 19 20  1  0
 20 21  2  0
 21 22  1  0
 18 23  1  0
 22 23  2  0
 13 24  1  0
 10 25  1  0
 24 25  1  0
 12 26  1  0
 24 26  1  0
 26 27  1  0
  5 28  1  0
  2 29  1  0
 28 29  2  0
  1 30  1  0
  1 31  1  0
  1 32  1  0
  3 33  1  0
  4 34  1  0
  7 35  1  0
  7 36  1  0
 11 37  1  0
 11 38  1  0
 12 39  1  6
 13 40  1  6
 14 41  1  0
 14 42  1  0
 17 43  1  0
 19 44  1  0
 20 45  1  0
 21 46  1  0
 23 47  1  0
 24 48  1  6
 25 49  1  0
 25 50  1  0
 27 51  1  0
 27 52  1  0
 27 53  1  0
 28 54  1  0
 29 55  1  0
M  END
