LIG
     RDKit          3D

 61 64  0  0  0  0  0  0  0  0999 V2000
    9.4190    1.1020   21.0000 O   0  0  0  0  0  0  0  0  0  0  0  0
    8.8650    0.3120   21.6960 C   0  0  0  0  0  0  0  0  0  0  0  0
    9.4090   -0.1550   23.0330 C   0  0  0  0  0  0  0  0  0  0  0  0
   10.9230   -0.0800   23.0900 C   0  0  0  0  0  0  0  0  0  0  0  0
   11.2810   -0.4020   24.5270 C   0  0  0  0  0  0  0  0  0  0  0  0
   12.7710   -0.1530   24.6900 C   0  0  0  0  0  0  0  0  0  0  0  0
   13.6100   -0.8590   23.6290 C   0  0  0  0  0  0  0  0  0  0  0  0
   12.8180   -1.7130   22.6470 C   0  0  0  0  0  0  0  0  0  0  0  0
   11.5620   -1.0470   22.0960 C   0  0  0  0  0  0  0  0  0  0  0  0
    7.6120   -0.2560   21.3260 N   0  0  0  0  0  0  0  0  0  0  0  0
    7.0000    0.1710   20.1090 C   0  0  0  0  0  0  0  0  0  0  0  0
    7.1615   -0.0495   19.0205 C   0  0  0  0  0  0  0  0  0  0  0  0
    6.7790    0.4140   17.8735 N   0  0  0  0  0  0  0  0  0  0  0  0
    5.7040    1.1305   17.7770 C   0  0  0  0  0  0  0  0  0  0  0  0
    4.9320    1.4350   18.8700 C   0  0  0  0  0  0  0  0  0  0  0  0
    4.8370    1.1650   19.9330 C   0  0  0  0  0  0  0  0  0  0  0  0
    3.8370    1.6420   20.9890 C   0  0  0  0  0  0  0  0  0  0  0  0
    4.3320    1.7170   22.4340 C   0  0  0  0  0  0  0  0  0  0  0  0
    3.3230    2.4740   23.1750 N   0  0  0  0  0  0  0  0  0  0  0  0
    2.1860    1.8200   23.8150 C   0  0  0  0  0  0  0  0  0  0  0  0
    2.0580    0.6400   23.7610 O   0  0  0  0  0  0  0  0  0  0  0  0
    1.1280    2.6340   24.5580 C   0  0  0  0  0  0  0  0  0  0  0  0
   -0.1860    2.1670   24.5890 C   0  0  0  0  0  0  0  0  0  0  0  0
   -1.1770    2.8770   25.2530 C   0  0  0  0  0  0  0  0  0  0  0  0
   -0.8610    4.0710   25.8830 C   0  0  0  0  0  0  0  0  0  0  0  0
    0.4450    4.5400   25.8480 C   0  0  0  0  0  0  0  0  0  0  0  0
    1.4450    3.8310   25.1930 C   0  0  0  0  0  0  0  0  0  0  0  0
    2.7270    4.3200   25.1830 F   0  0  0  0  0  0  0  0  0  0  0  0
    5.8035    0.5085   20.2250 C   0  0  0  0  0  0  0  0  0  0  0  0
    9.0454   -1.1811   23.1962 H   0  0  0  0  0  0  0  0  0  0  0  0
    8.9618    0.4380   23.8405 H   0  0  0  0  0  0  0  0  0  0  0  0
   10.3882   -1.7743   23.4838 H   0  0  0  0  0  0  0  0  0  0  0  0
   10.7458    0.2287   25.2240 H   0  0  0  0  0  0  0  0  0  0  0  0
   11.0595   -1.4355   24.7525 H   0  0  0  0  0  0  0  0  0  0  0  0
   12.9773    0.9320   24.6612 H   0  0  0  0  0  0  0  0  0  0  0  0
   13.0882   -0.4874   25.6943 H   0  0  0  0  0  0  0  0  0  0  0  0
   14.1885   -0.1091   23.0574 H   0  0  0  0  0  0  0  0  0  0  0  0
   14.3709   -1.4796   24.1390 H   0  0  0  0  0  0  0  0  0  0  0  0
   13.4732   -1.9957   21.7970 H   0  0  0  0  0  0  0  0  0  0  0  0
   12.5512   -2.6764   23.1286 H   0  0  0  0  0  0  0  0  0  0  0  0
   11.7955   -0.5483   21.1430 H   0  0  0  0  0  0  0  0  0  0  0  0
   10.8368   -1.8369   21.8422 H   0  0  0  0  0  0  0  0  0  0  0  0
    7.3001   -0.9430   21.8821 H   0  0  0  0  0  0  0  0  0  0  0  0
    7.6490    1.4410   20.4194 H   0  0  0  0  0  0  0  0  0  0  0  0
    7.6628    1.5077   19.1489 H   0  0  0  0  0  0  0  0  0  0  0  0
    7.5936    0.9307   17.3620 H   0  0  0  0  0  0  0  0  0  0  0  0
    5.0137    0.6424   16.9567 H   0  0  0  0  0  0  0  0  0  0  0  0
    5.9474    2.1237   17.1784 H   0  0  0  0  0  0  0  0  0  0  0  0
    3.7548    1.4632   18.3099 H   0  0  0  0  0  0  0  0  0  0  0  0
    4.9002    2.7227   18.7447 H   0  0  0  0  0  0  0  0  0  0  0  0
    5.6625    2.3276   20.2643 H   0  0  0  0  0  0  0  0  0  0  0  0
    2.9402    0.9873   20.9615 H   0  0  0  0  0  0  0  0  0  0  0  0
    3.4550    2.6452   20.7139 H   0  0  0  0  0  0  0  0  0  0  0  0
    4.4468    0.7564   22.8814 H   0  0  0  0  0  0  0  0  0  0  0  0
    5.2477    2.2707   22.4775 H   0  0  0  0  0  0  0  0  0  0  0  0
    3.3537    3.4771   23.2091 H   0  0  0  0  0  0  0  0  0  0  0  0
   -0.4451    1.2288   24.0891 H   0  0  0  0  0  0  0  0  0  0  0  0
   -2.1972    2.4964   25.2783 H   0  0  0  0  0  0  0  0  0  0  0  0
   -1.6327    4.6372   26.4022 H   0  0  0  0  0  0  0  0  0  0  0  0
    0.7002    5.4848   26.3416 H   0  0  0  0  0  0  0  0  0  0  0  0
    6.5406    1.9364   20.1650 H   0  0  0  0  0  0  0  0  0  0  0  0
  1  2  2  0
  2  3  1  0
  3  4  1  0
  4  5  1  0
  5  6  1  0
  6  7  1  0
  7  8  1  0
  8  9  1  0
  2 10  1  0
 10 11  1  0
 11 12  1  0
 12 13  1  0
 13 14  1  0
 14 15  1  0
 15 16  1  0
 16 17  1  0
 17 18  1  0
 18 19  1  0
 19 20  1  0
 20 21  2  0
 20 22  1  0
 22 23  4  0
 23 24  4  0
 24 25  4  0
 25 26  4  0
 26 27  4  0
 27 28  1  0
 16 29  1  0
  9  4  1  0
 29 11  1  0
 29 12  1  0
 27 22  4  0
  3 30  1  0
  3 31  1  0
  4 32  1  0
  5 33  1  0
  5 34  1  0
  6 35  1  0
  6 36  1  0
  7 37  1  0
  7 38  1  0
  8 39  1  0
  8 40  1  0
  9 41  1  0
  9 42  1  0
 10 43  1  0
 11 44  1  0
 12 45  1  0
 13 46  1  0
 14 47  1  0
 14 48  1  0
 15 49  1  0
 15 50  1  0
 16 51  1  0
 17 52  1  0
 17 53  1  0
 18 54  1  0
 18 55  1  0
 19 56  1  0
 23 57  1  0
 24 58  1  0
 25 59  1  0
 26 60  1  0
 29 61  1  0
M  END
