
     RDKit          3D

 49 51  0  0  0  0  0  0  0  0999 V2000
   13.4930   -2.4910   20.7320 N   0  0  0  0  0  0  0  0  0  0  0  0
   12.9410   -1.9430   21.5310 C   0  0  0  0  0  0  0  0  0  0  0  0
   12.1690   -1.2920   22.5800 C   0  0  0  0  0  0  0  0  0  0  0  0
   12.8030   -1.0650   23.7930 C   0  0  0  0  0  0  0  0  0  0  0  0
   12.0360   -0.3960   24.9050 C   0  0  0  0  0  0  0  0  0  0  0  0
   10.6300   -0.0410   24.5450 C   0  0  0  0  0  0  0  0  0  0  0  0
    9.6740    0.5900   25.3450 C   0  0  0  0  0  0  0  0  0  0  0  0
    8.4000    0.3260   24.9550 N   0  0  0  0  0  0  0  0  0  0  0  0
    7.7670    1.4730   24.4900 C   0  0  0  0  0  0  0  0  0  0  0  0
    8.3230    2.5030   24.0970 O   0  0  0  0  0  0  0  0  0  0  0  0
    6.2660    1.5330   24.4200 N   0  0  0  0  0  0  0  0  0  0  0  0
    5.6840    1.6480   23.0430 C   0  0  0  0  0  0  0  0  0  0  0  0
    4.2000    1.8480   22.9420 C   0  0  0  0  0  0  0  0  0  0  0  0
    3.5120    1.4450   23.8840 O   0  0  0  0  0  0  0  0  0  0  0  0
    4.2130    0.4720   24.6870 C   0  0  0  0  0  0  0  0  0  0  0  0
    5.3920    0.8450   25.3190 C   0  0  0  0  0  0  0  0  0  0  0  0
   10.0560   -0.3140   23.2740 C   0  0  0  0  0  0  0  0  0  0  0  0
    8.7550    0.0050   22.9490 C   0  0  0  0  0  0  0  0  0  0  0  0
    8.5470    0.4010   21.6410 C   0  0  0  0  0  0  0  0  0  0  0  0
    9.0470    1.4260   21.1550 O   0  0  0  0  0  0  0  0  0  0  0  0
    7.6380   -0.5730   20.9790 N   0  0  0  0  0  0  0  0  0  0  0  0
    6.8530    0.0630   20.0740 C   0  0  0  0  0  0  0  0  0  0  0  0
    5.7230    1.0160   20.4060 C   0  0  0  0  0  0  0  0  0  0  0  0
    5.0180    1.5800   19.3530 C   0  0  0  0  0  0  0  0  0  0  0  0
    5.3550    1.2670   18.0440 C   0  0  0  0  0  0  0  0  0  0  0  0
    6.3610    0.4140   17.7100 N   0  0  0  0  0  0  0  0  0  0  0  0
    7.1250   -0.2020   18.7680 C   0  0  0  0  0  0  0  0  0  0  0  0
   10.8500   -0.9410   22.3140 C   0  0  0  0  0  0  0  0  0  0  0  0
   13.8360   -1.3640   23.9490 H   0  0  0  0  0  0  0  0  0  0  0  0
   12.4990   -0.2070   25.8650 H   0  0  0  0  0  0  0  0  0  0  0  0
    9.7770    0.2690   26.3940 H   0  0  0  0  0  0  0  0  0  0  0  0
    9.8200    1.6740   25.3450 H   0  0  0  0  0  0  0  0  0  0  0  0
    7.8390   -0.2080   25.6020 H   0  0  0  0  0  0  0  0  0  0  0  0
    5.9020    0.6980   22.5410 H   0  0  0  0  0  0  0  0  0  0  0  0
    6.3290    2.3780   22.5600 H   0  0  0  0  0  0  0  0  0  0  0  0
    3.9860    2.9170   22.8230 H   0  0  0  0  0  0  0  0  0  0  0  0
    3.8480    1.3960   22.0050 H   0  0  0  0  0  0  0  0  0  0  0  0
    3.4830    0.1050   25.4150 H   0  0  0  0  0  0  0  0  0  0  0  0
    4.4640   -0.3680   24.0360 H   0  0  0  0  0  0  0  0  0  0  0  0
    5.1620    1.5220   26.1500 H   0  0  0  0  0  0  0  0  0  0  0  0
    5.9270    0.0030   25.7660 H   0  0  0  0  0  0  0  0  0  0  0  0
    8.1050   -0.8210   23.2220 H   0  0  0  0  0  0  0  0  0  0  0  0
    8.3690    0.7550   23.6170 H   0  0  0  0  0  0  0  0  0  0  0  0
    7.3640   -1.4670   21.3880 H   0  0  0  0  0  0  0  0  0  0  0  0
    5.4650    1.2570   21.4250 H   0  0  0  0  0  0  0  0  0  0  0  0
    4.2040    2.2670   19.5710 H   0  0  0  0  0  0  0  0  0  0  0  0
    4.8070    1.7080   17.2170 H   0  0  0  0  0  0  0  0  0  0  0  0
    7.9180   -0.8820   18.4280 H   0  0  0  0  0  0  0  0  0  0  0  0
   10.4320   -1.1640   21.3280 H   0  0  0  0  0  0  0  0  0  0  0  0
  1  2  3  0
  2  3  1  0
  3  4  2  0
  4  5  1  0
  5  6  2  0
  6  7  1  0
  7  8  1  0
  8  9  1  0
  9 10  2  0
  9 11  1  0
 11 12  1  0
 12 13  1  0
 13 14  1  0
 14 15  1  0
 11 16  1  0
 15 16  1  0
  6 17  1  0
 17 18  1  0
 18 19  1  0
 19 20  2  0
 19 21  1  0
 21 22  1  0
 22 23  2  0
 23 24  1  0
 24 25  2  0
 25 26  1  0
 22 27  1  0
 26 27  2  0
  3 28  1  0
 17 28  2  0
  4 29  1  0
  5 30  1  0
  7 31  1  0
  7 32  1  0
  8 33  1  0
 12 34  1  0
 12 35  1  0
 13 36  1  0
 13 37  1  0
 15 38  1  0
 15 39  1  0
 16 40  1  0
 16 41  1  0
 18 42  1  0
 18 43  1  0
 21 44  1  0
 23 45  1  0
 24 46  1  0
 25 47  1  0
 27 48  1  0
 28 49  1  0
M  END
