LIG
     RDKit          3D

 35 37  0  0  0  0  0  0  0  0999 V2000
    9.2815    0.9055   20.9175 O   0  0  0  0  0  0  0  0  0  0  0  0
    8.7285    0.0520   21.5215 C   0  0  0  0  0  0  0  0  0  0  0  0
    9.3205   -0.5450   22.7245 C   0  0  0  0  0  0  0  0  0  0  0  0
   10.7205   -0.2680   22.9545 C   0  0  0  0  0  0  0  0  0  0  0  0
   11.6120   -0.9085   22.1040 C   0  0  0  0  0  0  0  0  0  0  0  0
   12.8180   -1.7130   22.6470 C   0  0  0  0  0  0  0  0  0  0  0  0
   13.2420   -0.5580   23.0805 C   0  0  0  0  0  0  0  0  0  0  0  0
   12.8450    0.2120   24.1630 C   0  0  0  0  0  0  0  0  0  0  0  0
   11.7600    0.8910   24.3310 C   0  0  0  0  0  0  0  0  0  0  0  0
   10.9180   -0.0120   24.2225 C   0  0  0  0  0  0  0  0  0  0  0  0
    7.4480   -0.4455   21.1220 N   0  0  0  0  0  0  0  0  0  0  0  0
    6.8015    0.1110   19.9810 C   0  0  0  0  0  0  0  0  0  0  0  0
    5.5770    0.7235   20.1915 C   0  0  0  0  0  0  0  0  0  0  0  0
    4.9550    1.2695   19.0860 C   0  0  0  0  0  0  0  0  0  0  0  0
    5.5825    1.1605   17.8540 C   0  0  0  0  0  0  0  0  0  0  0  0
    6.7550    0.5785   17.7185 N   0  0  0  0  0  0  0  0  0  0  0  0
    7.3850    0.0515   18.7330 C   0  0  0  0  0  0  0  0  0  0  0  0
    8.7015   -0.2473   23.6158 H   0  0  0  0  0  0  0  0  0  0  0  0
    9.1467   -1.6523   22.6381 H   0  0  0  0  0  0  0  0  0  0  0  0
   10.5987   -1.7749   23.5680 H   0  0  0  0  0  0  0  0  0  0  0  0
   11.0791   -1.6411   21.3779 H   0  0  0  0  0  0  0  0  0  0  0  0
   12.0688   -0.1848   21.3154 H   0  0  0  0  0  0  0  0  0  0  0  0
   12.4473   -2.3816   23.3419 H   0  0  0  0  0  0  0  0  0  0  0  0
   13.3089   -2.1118   21.8308 H   0  0  0  0  0  0  0  0  0  0  0  0
   14.4572   -0.5766   23.1391 H   0  0  0  0  0  0  0  0  0  0  0  0
   13.2382    0.2227   22.1549 H   0  0  0  0  0  0  0  0  0  0  0  0
   12.3755    1.0323   22.6633 H   0  0  0  0  0  0  0  0  0  0  0  0
   11.7198    1.6610   25.3744 H   0  0  0  0  0  0  0  0  0  0  0  0
   11.6229    1.9373   23.5850 H   0  0  0  0  0  0  0  0  0  0  0  0
   11.3570    1.3040   22.7813 H   0  0  0  0  0  0  0  0  0  0  0  0
    7.0380   -1.1462   21.6176 H   0  0  0  0  0  0  0  0  0  0  0  0
    5.1181    0.7817   21.1539 H   0  0  0  0  0  0  0  0  0  0  0  0
    3.9966    1.7751   19.1663 H   0  0  0  0  0  0  0  0  0  0  0  0
    5.1248    1.5533   16.9588 H   0  0  0  0  0  0  0  0  0  0  0  0
    8.3229   -0.3976   18.5360 H   0  0  0  0  0  0  0  0  0  0  0  0
  1  2  2  0
  2  3  1  0
  3  4  1  0
  4  5  1  0
  5  6  1  0
  6  7  1  0
  7  8  1  0
  8  9  1  0
  9 10  1  0
  2 11  1  0
 11 12  1  0
 12 13  4  0
 13 14  4  0
 14 15  4  0
 15 16  4  0
 16 17  4  0
 10  4  1  0
 17 12  4  0
 10  8  1  0
  3 18  1  0
  3 19  1  0
  4 20  1  0
  5 21  1  0
  5 22  1  0
  6 23  1  0
  6 24  1  0
  7 25  1  0
  7 26  1  0
  8 27  1  0
  9 28  1  0
  9 29  1  0
 10 30  1  0
 11 31  1  0
 13 32  1  0
 14 33  1  0
 15 34  1  0
 17 35  1  0
M  END
