LIG
     RDKit          3D

 50 52  0  0  0  0  0  0  0  0999 V2000
    9.4190    1.1020   21.0000 O   0  0  0  0  0  0  0  0  0  0  0  0
    8.8650    0.3120   21.6960 C   0  0  0  0  0  0  0  0  0  0  0  0
    7.6120   -0.2560   21.3260 N   0  0  0  0  0  0  0  0  0  0  0  0
    7.0000    0.1710   20.1090 C   0  0  0  0  0  0  0  0  0  0  0  0
    5.7560    0.7730   20.2490 C   0  0  0  0  0  0  0  0  0  0  0  0
    5.1420    1.2080   19.0830 C   0  0  0  0  0  0  0  0  0  0  0  0
    5.8050    1.0240   17.8770 C   0  0  0  0  0  0  0  0  0  0  0  0
    7.0000    0.4540   17.8140 N   0  0  0  0  0  0  0  0  0  0  0  0
    7.6260    0.0260   18.8870 C   0  0  0  0  0  0  0  0  0  0  0  0
    9.5540   -0.8275   23.6395 C   0  0  0  0  0  0  0  0  0  0  0  0
   10.9990   -0.6115   23.3780 C   0  0  0  0  0  0  0  0  0  0  0  0
   11.6305   -0.2165   24.3585 C   0  0  0  0  0  0  0  0  0  0  0  0
   12.7710   -0.1530   24.6900 C   0  0  0  0  0  0  0  0  0  0  0  0
   13.4000   -0.4195   23.5250 C   0  0  0  0  0  0  0  0  0  0  0  0
   12.9875   -1.4135   22.4580 C   0  0  0  0  0  0  0  0  0  0  0  0
   11.6390   -1.4170   22.3275 C   0  0  0  0  0  0  0  0  0  0  0  0
    9.5440   -2.6880   24.5510 N   0  0  0  0  0  0  0  0  0  0  0  0
    8.3310   -2.8350   25.3360 C   0  0  0  0  0  0  0  0  0  0  0  0
    8.0790   -4.2690   25.8080 C   0  0  0  0  0  0  0  0  0  0  0  0
    9.1820   -4.8160   26.5550 C   0  0  0  0  0  0  0  0  0  0  0  0
    9.3040   -4.2150   27.8200 O   0  0  0  0  0  0  0  0  0  0  0  0
   10.4200   -4.6660   25.8330 C   0  0  0  0  0  0  0  0  0  0  0  0
   10.6550   -3.2590   25.2740 C   0  0  0  0  0  0  0  0  0  0  0  0
    7.1903   -0.8876   21.8800 H   0  0  0  0  0  0  0  0  0  0  0  0
    5.2779    0.9032   21.1908 H   0  0  0  0  0  0  0  0  0  0  0  0
    4.1655    1.6817   19.1020 H   0  0  0  0  0  0  0  0  0  0  0  0
    5.3682    1.3398   16.9439 H   0  0  0  0  0  0  0  0  0  0  0  0
    8.5762   -0.4053   18.7472 H   0  0  0  0  0  0  0  0  0  0  0  0
    9.3111   -0.0879   24.3397 H   0  0  0  0  0  0  0  0  0  0  0  0
   11.1094   -2.0157   24.1756 H   0  0  0  0  0  0  0  0  0  0  0  0
   11.1242    0.9233   24.6518 H   0  0  0  0  0  0  0  0  0  0  0  0
   11.0195   -0.6740   25.3849 H   0  0  0  0  0  0  0  0  0  0  0  0
   13.1032   -0.8868   25.4681 H   0  0  0  0  0  0  0  0  0  0  0  0
   13.1220    0.8330   25.0861 H   0  0  0  0  0  0  0  0  0  0  0  0
   13.5990    0.5925   22.9228 H   0  0  0  0  0  0  0  0  0  0  0  0
   14.5541   -0.6554   23.7203 H   0  0  0  0  0  0  0  0  0  0  0  0
   13.4090   -2.4002   22.7498 H   0  0  0  0  0  0  0  0  0  0  0  0
   13.5272   -1.1375   21.5269 H   0  0  0  0  0  0  0  0  0  0  0  0
   11.3097   -1.0305   21.3262 H   0  0  0  0  0  0  0  0  0  0  0  0
   11.2315   -2.4596   22.3501 H   0  0  0  0  0  0  0  0  0  0  0  0
    7.4543   -2.5125   24.7421 H   0  0  0  0  0  0  0  0  0  0  0  0
    8.3399   -2.1862   26.2330 H   0  0  0  0  0  0  0  0  0  0  0  0
    7.1400   -4.2789   26.4107 H   0  0  0  0  0  0  0  0  0  0  0  0
    7.8133   -4.8901   24.9166 H   0  0  0  0  0  0  0  0  0  0  0  0
    9.5061   -3.0684   26.3886 H   0  0  0  0  0  0  0  0  0  0  0  0
   10.1536   -3.7362   27.8505 H   0  0  0  0  0  0  0  0  0  0  0  0
   11.2981   -4.9066   26.4846 H   0  0  0  0  0  0  0  0  0  0  0  0
   10.5075   -5.3883   24.9819 H   0  0  0  0  0  0  0  0  0  0  0  0
   11.0040   -2.6104   26.1015 H   0  0  0  0  0  0  0  0  0  0  0  0
   11.5227   -3.3044   24.5878 H   0  0  0  0  0  0  0  0  0  0  0  0
  1  2  2  0
  2  3  1  0
  3  4  1  0
  4  5  4  0
  5  6  4  0
  6  7  4  0
  7  8  4  0
  8  9  4  0
  2 10  1  0
 10 11  1  0
 11 12  1  0
 12 13  1  0
 13 14  1  0
 14 15  1  0
 15 16  1  0
 10 17  1  0
 17 18  1  0
 18 19  1  0
 19 20  1  0
 20 21  1  0
 20 22  1  0
 22 23  1  0
  9  4  4  0
 16 11  1  0
 23 17  1  0
  3 24  1  0
  5 25  1  0
  6 26  1  0
  7 27  1  0
  9 28  1  0
 10 29  1  0
 11 30  1  0
 12 31  1  0
 12 32  1  0
 13 33  1  0
 13 34  1  0
 14 35  1  0
 14 36  1  0
 15 37  1  0
 15 38  1  0
 16 39  1  0
 16 40  1  0
 18 41  1  0
 18 42  1  0
 19 43  1  0
 19 44  1  0
 20 45  1  0
 21 46  1  0
 22 47  1  0
 22 48  1  0
 23 49  1  0
 23 50  1  0
M  END
