LIG
     RDKit          3D

 53 56  0  0  0  0  0  0  0  0999 V2000
   13.6250   -2.3810   24.3190 C   0  0  0  0  0  0  0  0  0  0  0  0
   12.9530   -0.6190   24.6280 C   0  0  0  0  0  0  0  0  0  0  0  0
   13.4315   -0.5065   23.5770 C   0  0  0  0  0  0  0  0  0  0  0  0
   13.3840   -1.0415   22.6215 C   0  0  0  0  0  0  0  0  0  0  0  0
   11.5620   -1.0470   22.0960 C   0  0  0  0  0  0  0  0  0  0  0  0
   10.9230   -0.0800   23.0900 C   0  0  0  0  0  0  0  0  0  0  0  0
    9.4090   -0.1550   23.0330 C   0  0  0  0  0  0  0  0  0  0  0  0
    8.8650    0.3120   21.6960 C   0  0  0  0  0  0  0  0  0  0  0  0
    9.4190    1.1020   21.0000 O   0  0  0  0  0  0  0  0  0  0  0  0
    7.6120   -0.2560   21.3260 N   0  0  0  0  0  0  0  0  0  0  0  0
    7.0000    0.1710   20.1090 C   0  0  0  0  0  0  0  0  0  0  0  0
    5.7560    0.7730   20.2490 C   0  0  0  0  0  0  0  0  0  0  0  0
    5.1420    1.2080   19.0830 C   0  0  0  0  0  0  0  0  0  0  0  0
    5.8050    1.0240   17.8770 C   0  0  0  0  0  0  0  0  0  0  0  0
    7.0000    0.4540   17.8140 N   0  0  0  0  0  0  0  0  0  0  0  0
    7.6260    0.0260   18.8870 C   0  0  0  0  0  0  0  0  0  0  0  0
   11.2780    0.4180   24.3960 C   0  0  0  0  0  0  0  0  0  0  0  0
   10.5980    2.4480   24.3410 C   0  0  0  0  0  0  0  0  0  0  0  0
   11.1470    3.5810   23.7500 C   0  0  0  0  0  0  0  0  0  0  0  0
   10.2820    5.1680   23.8420 S   0  0  0  0  0  6  0  0  0  0  0  0
    8.8600    5.1380   22.8970 N   0  0  0  0  0  0  0  0  0  0  0  0
   11.1550    6.2720   23.4300 O   0  0  0  0  0  0  0  0  0  0  0  0
    9.9940    5.5050   25.2370 O   0  0  0  0  0  0  0  0  0  0  0  0
   12.3650    3.5080   23.0890 C   0  0  0  0  0  0  0  0  0  0  0  0
   13.0360    2.3020   23.0200 C   0  0  0  0  0  0  0  0  0  0  0  0
   12.4930    1.1680   23.6040 C   0  0  0  0  0  0  0  0  0  0  0  0
   14.6116   -2.1536   24.0601 H   0  0  0  0  0  0  0  0  0  0  0  0
   14.3870   -2.4743   24.9990 H   0  0  0  0  0  0  0  0  0  0  0  0
   13.4937   -2.7983   25.2659 H   0  0  0  0  0  0  0  0  0  0  0  0
   13.5366   -0.4625   25.5095 H   0  0  0  0  0  0  0  0  0  0  0  0
   11.6986   -0.9735   23.2697 H   0  0  0  0  0  0  0  0  0  0  0  0
   13.5319   -2.1632   22.4767 H   0  0  0  0  0  0  0  0  0  0  0  0
   13.7577   -0.6462   21.6161 H   0  0  0  0  0  0  0  0  0  0  0  0
   11.6820   -0.6866   21.1370 H   0  0  0  0  0  0  0  0  0  0  0  0
   11.3406   -2.0378   22.1833 H   0  0  0  0  0  0  0  0  0  0  0  0
   10.6346   -1.4512   23.9261 H   0  0  0  0  0  0  0  0  0  0  0  0
    8.9615    0.4388   23.8344 H   0  0  0  0  0  0  0  0  0  0  0  0
    9.0582   -1.1831   23.1475 H   0  0  0  0  0  0  0  0  0  0  0  0
    7.1998   -0.9072   21.8727 H   0  0  0  0  0  0  0  0  0  0  0  0
    5.2789    0.9040   21.1913 H   0  0  0  0  0  0  0  0  0  0  0  0
    4.1658    1.6824   19.1026 H   0  0  0  0  0  0  0  0  0  0  0  0
    5.3683    1.3404   16.9441 H   0  0  0  0  0  0  0  0  0  0  0  0
    8.5766   -0.4044   18.7484 H   0  0  0  0  0  0  0  0  0  0  0  0
   10.4304    2.4677   25.4984 H   0  0  0  0  0  0  0  0  0  0  0  0
    9.5121    2.1264   24.0390 H   0  0  0  0  0  0  0  0  0  0  0  0
   10.4392    3.3149   22.5032 H   0  0  0  0  0  0  0  0  0  0  0  0
    8.5387    6.0902   22.7464 H   0  0  0  0  0  0  0  0  0  0  0  0
    8.1250    5.6476   23.3786 H   0  0  0  0  0  0  0  0  0  0  0  0
   12.2601    3.9343   22.0056 H   0  0  0  0  0  0  0  0  0  0  0  0
   13.0913    4.3251   23.5070 H   0  0  0  0  0  0  0  0  0  0  0  0
   14.1317    2.4494   23.4183 H   0  0  0  0  0  0  0  0  0  0  0  0
   13.3404    2.1000   21.9027 H   0  0  0  0  0  0  0  0  0  0  0  0
   13.2081    1.4852   24.8663 H   0  0  0  0  0  0  0  0  0  0  0  0
  1  2  1  0
  2  3  1  0
  3  4  1  0
  4  5  1  0
  5  6  1  0
  6  7  1  0
  7  8  1  0
  8  9  2  0
  8 10  1  0
 10 11  1  0
 11 12  4  0
 12 13  4  0
 13 14  4  0
 14 15  4  0
 15 16  4  0
  6 17  1  0
 17 18  1  0
 18 19  1  0
 19 20  1  0
 20 21  1  0
 20 22  2  0
 20 23  2  0
 19 24  1  0
 24 25  1  0
 25 26  1  0
 17  2  1  0
 26  3  1  0
 16 11  4  0
 26 17  1  0
  1 27  1  0
  1 28  1  0
  1 29  1  0
  2 30  1  0
  3 31  1  0
  4 32  1  0
  4 33  1  0
  5 34  1  0
  5 35  1  0
  6 36  1  0
  7 37  1  0
  7 38  1  0
 10 39  1  0
 12 40  1  0
 13 41  1  0
 14 42  1  0
 16 43  1  0
 18 44  1  0
 18 45  1  0
 19 46  1  0
 21 47  1  0
 21 48  1  0
 24 49  1  0
 24 50  1  0
 25 51  1  0
 25 52  1  0
 26 53  1  0
M  END
