LIG
     RDKit          3D

 43 44  0  0  0  0  0  0  0  0999 V2000
    8.4100    0.0120   27.4140 C   0  0  0  0  0  0  0  0  0  0  0  0
    8.9670   -0.5390   26.1210 C   0  0  0  0  0  0  0  0  0  0  0  0
   10.1000    0.2670   25.7050 N   0  0  0  0  0  0  0  0  0  0  0  0
   11.1040   -0.2890   24.5680 C   0  0  0  0  0  0  0  0  0  0  0  0
   12.3890    0.1815   24.4945 C   0  0  0  0  0  0  0  0  0  0  0  0
   13.1990   -0.3610   23.4590 C   0  0  0  0  0  0  0  0  0  0  0  0
   12.6560   -1.3520   22.5855 C   0  0  0  0  0  0  0  0  0  0  0  0
   13.3880   -1.4320   21.3740 C   0  0  0  0  0  0  0  0  0  0  0  0
   14.0700   -1.7370   20.5180 N   0  0  0  0  0  0  0  0  0  0  0  0
   11.4635   -1.3865   22.4660 C   0  0  0  0  0  0  0  0  0  0  0  0
   10.7495   -0.6955   23.4900 C   0  0  0  0  0  0  0  0  0  0  0  0
    9.4090   -0.1550   23.0330 C   0  0  0  0  0  0  0  0  0  0  0  0
    8.8650    0.3120   21.6960 C   0  0  0  0  0  0  0  0  0  0  0  0
    9.4190    1.1020   21.0000 O   0  0  0  0  0  0  0  0  0  0  0  0
    7.6120   -0.2560   21.3260 N   0  0  0  0  0  0  0  0  0  0  0  0
    7.0000    0.1710   20.1090 C   0  0  0  0  0  0  0  0  0  0  0  0
    5.7560    0.7730   20.2490 C   0  0  0  0  0  0  0  0  0  0  0  0
    5.1420    1.2080   19.0830 C   0  0  0  0  0  0  0  0  0  0  0  0
    5.8050    1.0240   17.8770 C   0  0  0  0  0  0  0  0  0  0  0  0
    7.0000    0.4540   17.8140 N   0  0  0  0  0  0  0  0  0  0  0  0
    7.6260    0.0260   18.8870 C   0  0  0  0  0  0  0  0  0  0  0  0
    7.3307   -0.1715   27.4734 H   0  0  0  0  0  0  0  0  0  0  0  0
    8.8767   -0.4612   28.2868 H   0  0  0  0  0  0  0  0  0  0  0  0
    8.5682    1.0950   27.4896 H   0  0  0  0  0  0  0  0  0  0  0  0
    9.2519   -1.5861   26.2737 H   0  0  0  0  0  0  0  0  0  0  0  0
    8.1804   -0.5116   25.3569 H   0  0  0  0  0  0  0  0  0  0  0  0
   10.7041    0.5252   26.5091 H   0  0  0  0  0  0  0  0  0  0  0  0
   11.3812   -1.4034   25.2127 H   0  0  0  0  0  0  0  0  0  0  0  0
   12.4500    1.3235   24.4320 H   0  0  0  0  0  0  0  0  0  0  0  0
   12.9309    0.0199   25.4885 H   0  0  0  0  0  0  0  0  0  0  0  0
   14.1998   -0.7255   23.9146 H   0  0  0  0  0  0  0  0  0  0  0  0
   13.6048    0.5156   22.8256 H   0  0  0  0  0  0  0  0  0  0  0  0
   12.3353    0.1005   21.7947 H   0  0  0  0  0  0  0  0  0  0  0  0
   10.9758   -2.4501   22.4120 H   0  0  0  0  0  0  0  0  0  0  0  0
   11.0734   -1.0001   21.4382 H   0  0  0  0  0  0  0  0  0  0  0  0
   11.2800    0.5851   22.8413 H   0  0  0  0  0  0  0  0  0  0  0  0
    9.1200    0.7466   23.7697 H   0  0  0  0  0  0  0  0  0  0  0  0
    8.5687   -0.9078   23.4537 H   0  0  0  0  0  0  0  0  0  0  0  0
    7.1902   -0.8890   21.8860 H   0  0  0  0  0  0  0  0  0  0  0  0
    5.2795    0.9047   21.1915 H   0  0  0  0  0  0  0  0  0  0  0  0
    4.1659    1.6824   19.1026 H   0  0  0  0  0  0  0  0  0  0  0  0
    5.3683    1.3402   16.9441 H   0  0  0  0  0  0  0  0  0  0  0  0
    8.5757   -0.4060   18.7482 H   0  0  0  0  0  0  0  0  0  0  0  0
  1  2  1  0
  2  3  1  0
  3  4  1  0
  4  5  1  0
  5  6  1  0
  6  7  1  0
  7  8  1  0
  8  9  3  0
  7 10  1  0
 10 11  1  0
 11 12  1  0
 12 13  1  0
 13 14  2  0
 13 15  1  0
 15 16  1  0
 16 17  4  0
 17 18  4  0
 18 19  4  0
 19 20  4  0
 20 21  4  0
 11  4  1  0
 21 16  4  0
  1 22  1  0
  1 23  1  0
  1 24  1  0
  2 25  1  0
  2 26  1  0
  3 27  1  0
  4 28  1  0
  5 29  1  0
  5 30  1  0
  6 31  1  0
  6 32  1  0
  7 33  1  0
 10 34  1  0
 10 35  1  0
 11 36  1  0
 12 37  1  0
 12 38  1  0
 15 39  1  0
 17 40  1  0
 18 41  1  0
 19 42  1  0
 21 43  1  0
M  END
