LIG
     RDKit          3D

 49 51  0  0  0  0  0  0  0  0999 V2000
   13.9850   -1.7380   20.5810 N   0  0  0  0  0  0  0  0  0  0  0  0
   13.2800   -1.3010   21.3800 C   0  0  0  0  0  0  0  0  0  0  0  0
   12.6285   -1.2200   22.5030 C   0  0  0  0  0  0  0  0  0  0  0  0
   13.1895   -0.1730   23.2720 C   0  0  0  0  0  0  0  0  0  0  0  0
   12.3440    0.4705   24.2710 C   0  0  0  0  0  0  0  0  0  0  0  0
   11.0185    0.0140   24.3835 C   0  0  0  0  0  0  0  0  0  0  0  0
    9.8330    1.0540   25.2470 C   0  0  0  0  0  0  0  0  0  0  0  0
    8.4500    0.7150   24.9220 N   0  0  0  0  0  0  0  0  0  0  0  0
    7.7030    1.4680   24.0150 C   0  0  0  0  0  0  0  0  0  0  0  0
    8.1720    2.4660   23.4420 O   0  0  0  0  0  0  0  0  0  0  0  0
    6.3360    0.9640   23.8050 N   0  0  0  0  0  0  0  0  0  0  0  0
    5.6140    1.6470   22.6990 C   0  0  0  0  0  0  0  0  0  0  0  0
    4.2210    1.0320   22.4570 C   0  0  0  0  0  0  0  0  0  0  0  0
    3.4750    1.0690   23.6570 O   0  0  0  0  0  0  0  0  0  0  0  0
    4.0500    0.3480   24.7320 C   0  0  0  0  0  0  0  0  0  0  0  0
    5.4800    0.8530   25.0320 C   0  0  0  0  0  0  0  0  0  0  0  0
   10.6825   -0.4495   23.3895 C   0  0  0  0  0  0  0  0  0  0  0  0
    9.4090   -0.1550   23.0330 C   0  0  0  0  0  0  0  0  0  0  0  0
    8.8650    0.3120   21.6960 C   0  0  0  0  0  0  0  0  0  0  0  0
    9.4190    1.1020   21.0000 O   0  0  0  0  0  0  0  0  0  0  0  0
    7.6120   -0.2560   21.3260 N   0  0  0  0  0  0  0  0  0  0  0  0
    7.0000    0.1710   20.1090 C   0  0  0  0  0  0  0  0  0  0  0  0
    5.7560    0.7730   20.2490 C   0  0  0  0  0  0  0  0  0  0  0  0
    5.1420    1.2080   19.0830 C   0  0  0  0  0  0  0  0  0  0  0  0
    5.8050    1.0240   17.8770 C   0  0  0  0  0  0  0  0  0  0  0  0
    7.0000    0.4540   17.8140 N   0  0  0  0  0  0  0  0  0  0  0  0
    7.6260    0.0260   18.8870 C   0  0  0  0  0  0  0  0  0  0  0  0
   11.4220   -1.2225   22.4210 C   0  0  0  0  0  0  0  0  0  0  0  0
   14.1925    0.1484   23.1555 H   0  0  0  0  0  0  0  0  0  0  0  0
   12.7659    1.2260   24.8650 H   0  0  0  0  0  0  0  0  0  0  0  0
   10.0295    0.8179   26.2636 H   0  0  0  0  0  0  0  0  0  0  0  0
   10.1083    2.0363   24.9677 H   0  0  0  0  0  0  0  0  0  0  0  0
    7.8960    0.3513   25.6866 H   0  0  0  0  0  0  0  0  0  0  0  0
    6.2381    1.5244   21.8076 H   0  0  0  0  0  0  0  0  0  0  0  0
    5.5203    2.7146   22.9201 H   0  0  0  0  0  0  0  0  0  0  0  0
    3.6941    1.5928   21.6980 H   0  0  0  0  0  0  0  0  0  0  0  0
    4.3216    0.0044   22.1446 H   0  0  0  0  0  0  0  0  0  0  0  0
    3.4233    0.4696   25.6055 H   0  0  0  0  0  0  0  0  0  0  0  0
    4.0824   -0.7009   24.4605 H   0  0  0  0  0  0  0  0  0  0  0  0
    5.4487    1.8631   25.4700 H   0  0  0  0  0  0  0  0  0  0  0  0
    5.9753    0.1913   25.7573 H   0  0  0  0  0  0  0  0  0  0  0  0
    8.7174   -1.0753   23.3037 H   0  0  0  0  0  0  0  0  0  0  0  0
    8.8833    0.5974   23.7888 H   0  0  0  0  0  0  0  0  0  0  0  0
    7.1652   -0.8503   21.9019 H   0  0  0  0  0  0  0  0  0  0  0  0
    5.2699    0.9098   21.1855 H   0  0  0  0  0  0  0  0  0  0  0  0
    4.1683    1.6795   19.1076 H   0  0  0  0  0  0  0  0  0  0  0  0
    5.3677    1.3406   16.9452 H   0  0  0  0  0  0  0  0  0  0  0  0
    8.5714   -0.4076   18.7595 H   0  0  0  0  0  0  0  0  0  0  0  0
   10.8150   -1.7612   21.6795 H   0  0  0  0  0  0  0  0  0  0  0  0
  1  2  3  0
  2  3  1  0
  3  4  4  0
  4  5  4  0
  5  6  4  0
  6  7  1  0
  7  8  1  0
  8  9  1  0
  9 10  2  0
  9 11  1  0
 11 12  1  0
 12 13  1  0
 13 14  1  0
 14 15  1  0
 15 16  1  0
  6 17  4  0
 17 18  1  0
 18 19  1  0
 19 20  2  0
 19 21  1  0
 21 22  1  0
 22 23  4  0
 23 24  4  0
 24 25  4  0
 25 26  4  0
 26 27  4  0
 17 28  4  0
 28  3  4  0
 16 11  1  0
 27 22  4  0
  4 29  1  0
  5 30  1  0
  7 31  1  0
  7 32  1  0
  8 33  1  0
 12 34  1  0
 12 35  1  0
 13 36  1  0
 13 37  1  0
 15 38  1  0
 15 39  1  0
 16 40  1  0
 16 41  1  0
 18 42  1  0
 18 43  1  0
 21 44  1  0
 23 45  1  0
 24 46  1  0
 25 47  1  0
 27 48  1  0
 28 49  1  0
M  END
