LIG
     RDKit          3D

 45 48  0  0  0  0  0  0  0  0999 V2000
   11.4660    6.2570   23.4610 N   0  0  0  0  0  0  0  0  0  0  0  0
   10.4990    4.8830   23.7330 S   0  0  0  0  0  6  0  0  0  0  0  0
    9.9890    4.8060   25.0960 O   0  0  0  0  0  0  0  0  0  0  0  0
    9.2550    4.9160   22.9600 O   0  0  0  0  0  0  0  0  0  0  0  0
   10.8225    3.2700   22.8320 C   0  0  0  0  0  0  0  0  0  0  0  0
   12.7210    3.4490   22.8300 C   0  0  0  0  0  0  0  0  0  0  0  0
   13.4330    2.2640   22.6290 C   0  0  0  0  0  0  0  0  0  0  0  0
   12.8830    1.0330   23.0360 C   0  0  0  0  0  0  0  0  0  0  0  0
   13.4770    0.0205   22.8270 C   0  0  0  0  0  0  0  0  0  0  0  0
   12.9085   -1.2580   22.1895 C   0  0  0  0  0  0  0  0  0  0  0  0
   11.5595   -1.4700   22.9230 C   0  0  0  0  0  0  0  0  0  0  0  0
   11.0490   -0.3560   23.5650 N   0  0  0  0  0  0  0  0  0  0  0  0
   11.8270    0.7615   23.5485 C   0  0  0  0  0  0  0  0  0  0  0  0
   10.9030    2.1690   23.8360 C   0  0  0  0  0  0  0  0  0  0  0  0
    9.7600   -0.3390   24.2980 C   0  0  0  0  0  0  0  0  0  0  0  0
    8.6870   -1.0390   23.0120 C   0  0  0  0  0  0  0  0  0  0  0  0
    7.3150   -0.3490   23.3420 C   0  0  0  0  0  0  0  0  0  0  0  0
    7.6990    1.1640   23.7480 C   0  0  0  0  0  0  0  0  0  0  0  0
    9.0240    1.2620   23.5980 C   0  0  2  0  0  0  0  0  0  0  0  0
    9.4080    1.9150   22.2270 C   0  0  0  0  0  0  0  0  0  0  0  0
    9.0780    1.4060   21.1760 O   0  0  0  0  0  0  0  0  0  0  0  0
   11.9379    6.1494   22.5626 H   0  0  0  0  0  0  0  0  0  0  0  0
   12.4292    5.9602   23.3084 H   0  0  0  0  0  0  0  0  0  0  0  0
   12.8399    4.2456   22.0874 H   0  0  0  0  0  0  0  0  0  0  0  0
   12.8456    3.9297   23.8089 H   0  0  0  0  0  0  0  0  0  0  0  0
   14.4904    2.3808   23.0949 H   0  0  0  0  0  0  0  0  0  0  0  0
   13.7542    2.2158   21.5130 H   0  0  0  0  0  0  0  0  0  0  0  0
   13.5527    1.1484   24.3037 H   0  0  0  0  0  0  0  0  0  0  0  0
   14.0105   -0.4371   23.8038 H   0  0  0  0  0  0  0  0  0  0  0  0
   14.5194    0.1478   22.2251 H   0  0  0  0  0  0  0  0  0  0  0  0
   13.5528   -2.0753   22.3697 H   0  0  0  0  0  0  0  0  0  0  0  0
   12.7336   -1.1029   21.1579 H   0  0  0  0  0  0  0  0  0  0  0  0
   11.6760   -2.3499   23.6224 H   0  0  0  0  0  0  0  0  0  0  0  0
   10.8834   -1.8831   22.1221 H   0  0  0  0  0  0  0  0  0  0  0  0
   12.1184    0.7578   24.8794 H   0  0  0  0  0  0  0  0  0  0  0  0
    9.8940    1.7699   24.1827 H   0  0  0  0  0  0  0  0  0  0  0  0
   11.3053    2.5283   24.8377 H   0  0  0  0  0  0  0  0  0  0  0  0
    9.4795   -0.4826   25.0192 H   0  0  0  0  0  0  0  0  0  0  0  0
    9.0840   -0.6958   22.0988 H   0  0  0  0  0  0  0  0  0  0  0  0
    8.6926   -2.0768   23.1496 H   0  0  0  0  0  0  0  0  0  0  0  0
    6.6348   -0.3559   22.4946 H   0  0  0  0  0  0  0  0  0  0  0  0
    6.8384   -0.8337   24.1938 H   0  0  0  0  0  0  0  0  0  0  0  0
    7.2774    1.3244   24.7742 H   0  0  0  0  0  0  0  0  0  0  0  0
    7.0412    1.7958   23.0914 H   0  0  0  0  0  0  0  0  0  0  0  0
    9.3892    2.0236   24.4112 H   0  0  0  0  0  0  0  0  0  0  0  0
  1  2  1  0
  2  3  2  0
  2  4  2  0
  2  5  1  0
  5  6  1  0
  6  7  1  0
  7  8  1  0
  8  9  1  0
  9 10  1  0
 10 11  1  0
 11 12  1  0
 12 13  1  0
 13 14  1  0
 12 15  1  0
 15 16  1  0
 16 17  1  0
 17 18  1  0
 18 19  1  0
 19 20  1  0
 20 21  2  0
 14  5  1  0
 19 15  1  0
 20  5  1  0
 13  8  1  0
  1 22  1  0
  1 23  1  0
  6 24  1  0
  6 25  1  0
  7 26  1  0
  7 27  1  0
  8 28  1  0
  9 29  1  0
  9 30  1  0
 10 31  1  0
 10 32  1  0
 11 33  1  0
 11 34  1  0
 13 35  1  0
 14 36  1  0
 14 37  1  0
 15 38  1  0
 16 39  1  0
 16 40  1  0
 17 41  1  0
 17 42  1  0
 18 43  1  0
 18 44  1  0
 19 45  1  1
M  END
