
     RDKit          3D

 42 44  0  0  0  0  0  0  0  0999 V2000
    7.2130   -1.0940   19.3300 N   0  0  0  0  0  0  0  0  0  0  0  0
    7.6750   -1.2090   20.3940 C   0  0  0  0  0  0  0  0  0  0  0  0
    8.2400   -1.2540   21.7920 C   0  0  1  0  0  0  0  0  0  0  0  0
    8.5210   -2.4590   22.4080 C   0  0  0  0  0  0  0  0  0  0  0  0
    8.9500   -2.2730   23.8210 C   0  0  0  0  0  0  0  0  0  0  0  0
    8.8550   -0.7960   23.9660 C   0  0  2  0  0  0  0  0  0  0  0  0
    9.8670    0.0510   23.4540 C   0  0  0  0  0  0  0  0  0  0  0  0
    9.2950   -0.3660   22.0670 C   0  0  0  0  0  0  0  0  0  0  0  0
    8.9880   -0.3500   25.4670 C   0  0  0  0  0  0  0  0  0  0  0  0
    8.5430    0.9330   25.5180 N   0  0  0  0  0  0  0  0  0  0  0  0
    8.2410    1.4790   24.2510 C   0  0  0  0  0  0  0  0  0  0  0  0
    9.0630    2.2350   23.7270 O   0  0  0  0  0  0  0  0  0  0  0  0
    9.0040    2.7850   22.4180 C   0  0  0  0  0  0  0  0  0  0  0  0
    9.3780    4.1900   22.2250 N   0  0  0  0  0  0  0  0  0  0  0  0
    8.6990    2.0400   21.4740 O   0  0  0  0  0  0  0  0  0  0  0  0
    7.0460    0.9110   23.8470 N   0  0  2  0  0  0  0  0  0  0  0  0
    6.4050    1.5910   22.8790 C   0  0  0  0  0  0  0  0  0  0  0  0
    5.0310    1.4130   22.5620 C   0  0  0  0  0  0  0  0  0  0  0  0
    4.3890    1.3060   23.5980 O   0  0  0  0  0  0  0  0  0  0  0  0
    5.0040    0.3460   24.4310 C   0  0  0  0  0  0  0  0  0  0  0  0
    6.1920    0.7430   25.0700 C   0  0  0  0  0  0  0  0  0  0  0  0
    7.5670   -0.2950   23.4160 C   0  0  0  0  0  0  0  0  0  0  0  0
    7.3980   -0.8650   22.3750 H   0  0  0  0  0  0  0  0  0  0  0  0
    8.4480   -3.4400   21.9290 H   0  0  0  0  0  0  0  0  0  0  0  0
    9.2310   -3.0240   24.5460 H   0  0  0  0  0  0  0  0  0  0  0  0
    9.9450    0.0640   24.5430 H   0  0  0  0  0  0  0  0  0  0  0  0
    9.7600    0.0620   21.1860 H   0  0  0  0  0  0  0  0  0  0  0  0
   10.0220   -0.3550   25.8370 H   0  0  0  0  0  0  0  0  0  0  0  0
    8.3780   -0.9440   26.1390 H   0  0  0  0  0  0  0  0  0  0  0  0
    8.0040    1.2190   26.3410 H   0  0  0  0  0  0  0  0  0  0  0  0
   10.3420    4.4750   22.1410 H   0  0  0  0  0  0  0  0  0  0  0  0
    8.6640    4.8410   21.9100 H   0  0  0  0  0  0  0  0  0  0  0  0
    6.9750    1.3780   21.9760 H   0  0  0  0  0  0  0  0  0  0  0  0
    6.5620    2.6660   23.0280 H   0  0  0  0  0  0  0  0  0  0  0  0
    4.9150    0.4860   22.0080 H   0  0  0  0  0  0  0  0  0  0  0  0
    4.5290    2.1880   21.9900 H   0  0  0  0  0  0  0  0  0  0  0  0
    5.0490   -0.5710   23.8510 H   0  0  0  0  0  0  0  0  0  0  0  0
    4.2810    0.1440   25.2200 H   0  0  0  0  0  0  0  0  0  0  0  0
    6.0730    1.6790   25.6210 H   0  0  0  0  0  0  0  0  0  0  0  0
    6.6200   -0.0340   25.7150 H   0  0  0  0  0  0  0  0  0  0  0  0
    6.7800   -1.0410   23.5950 H   0  0  0  0  0  0  0  0  0  0  0  0
    7.6490   -0.1660   22.3350 H   0  0  0  0  0  0  0  0  0  0  0  0
  1  2  3  0
  2  3  1  0
  3  4  1  0
  4  5  2  0
  6  5  1  1
  6  7  1  0
  3  8  1  0
  7  8  2  0
  6  9  1  0
  9 10  1  0
 10 11  1  0
 11 12  2  3
 12 13  1  0
 13 14  1  0
 13 15  2  0
 16 11  1  1
 16 17  1  0
 17 18  1  0
 18 19  1  0
 19 20  1  0
 16 21  1  0
 20 21  1  0
  6 22  1  0
 16 22  1  0
  3 23  1  1
  4 24  1  0
  5 25  1  0
  7 26  1  0
  8 27  1  0
  9 28  1  0
  9 29  1  0
 10 30  1  0
 14 31  1  0
 14 32  1  0
 17 33  1  0
 17 34  1  0
 18 35  1  0
 18 36  1  0
 20 37  1  0
 20 38  1  0
 21 39  1  0
 21 40  1  0
 22 41  1  0
 22 42  1  0
M  CHG  2  12   1  16   1
M  END
