
     RDKit          3D

 37 38  0  0  0  0  0  0  0  0999 V2000
    6.4810   -4.8980   26.1190 C   0  0  0  0  0  0  0  0  0  0  0  0
    7.9990   -3.9940   25.9290 S   0  0  1  0  0  0  0  0  0  0  0  0
    8.1380   -3.1920   27.1180 O   0  0  0  0  0  0  0  0  0  0  0  0
    9.0230   -4.9290   25.5170 O   0  0  0  0  0  0  0  0  0  0  0  0
    7.6440   -2.9450   24.6320 N   0  0  0  0  0  0  0  0  0  0  0  0
    8.5890   -2.7140   23.5020 C   0  0  0  0  0  0  0  0  0  0  0  0
    8.5010   -1.3760   22.9700 C   0  0  1  0  0  0  0  0  0  0  0  0
    7.1430   -0.6730   23.0370 C   0  0  0  0  0  0  0  0  0  0  0  0
    7.5620    0.7340   23.1860 C   0  0  0  0  0  0  0  0  0  0  0  0
    8.9190    0.8520   23.3120 C   0  0  2  0  0  0  0  0  0  0  0  0
    9.4200    1.9840   22.4000 C   0  0  0  0  0  0  0  0  0  0  0  0
   10.0150    2.9610   22.1350 N   0  0  0  0  0  0  0  0  0  0  0  0
    8.8960    1.7730   21.2970 O   0  0  0  0  0  0  0  0  0  0  0  0
    9.5250   -0.4480   23.3710 C   0  0  2  0  0  0  0  0  0  0  0  0
   10.9200   -0.6900   22.8590 C   0  0  0  0  0  0  0  0  0  0  0  0
   11.9930    0.3580   23.1070 C   0  0  0  0  0  0  0  0  0  0  0  0
   13.1870   -0.0100   22.6050 C   0  0  0  0  0  0  0  0  0  0  0  0
   13.1520   -1.5810   21.8090 S   0  0  0  0  0  0  0  0  0  0  0  0
   11.4710   -1.7590   22.1580 C   0  0  0  0  0  0  0  0  0  0  0  0
    6.1710   -4.8380   27.1650 H   0  0  0  0  0  0  0  0  0  0  0  0
    5.7060   -4.4450   25.4920 H   0  0  0  0  0  0  0  0  0  0  0  0
    6.6350   -5.9360   25.8420 H   0  0  0  0  0  0  0  0  0  0  0  0
    6.6450   -2.9160   24.4660 H   0  0  0  0  0  0  0  0  0  0  0  0
    9.6030   -2.9220   23.8120 H   0  0  0  0  0  0  0  0  0  0  0  0
    8.3280   -3.4240   22.7100 H   0  0  0  0  0  0  0  0  0  0  0  0
    8.6800   -1.4960   21.8930 H   0  0  0  0  0  0  0  0  0  0  0  0
    6.5470   -0.8220   22.1250 H   0  0  0  0  0  0  0  0  0  0  0  0
    6.5470   -1.0070   23.8940 H   0  0  0  0  0  0  0  0  0  0  0  0
    7.0780    1.1890   24.0610 H   0  0  0  0  0  0  0  0  0  0  0  0
    7.2380    1.3250   22.3220 H   0  0  0  0  0  0  0  0  0  0  0  0
    9.0520    1.2660   24.3120 H   0  0  0  0  0  0  0  0  0  0  0  0
    9.7880    3.6010   21.3670 H   0  0  0  0  0  0  0  0  0  0  0  0
   10.8830    3.1190   22.6510 H   0  0  0  0  0  0  0  0  0  0  0  0
    9.4310   -0.6010   24.4250 H   0  0  0  0  0  0  0  0  0  0  0  0
   11.8340    1.2900   23.6210 H   0  0  0  0  0  0  0  0  0  0  0  0
   14.0750    0.6120   22.6890 H   0  0  0  0  0  0  0  0  0  0  0  0
   10.9730   -2.6670   21.8210 H   0  0  0  0  0  0  0  0  0  0  0  0
  1  2  1  0
  2  3  2  0
  2  4  2  0
  2  5  1  6
  5  6  1  0
  6  7  1  0
  7  8  1  0
  8  9  1  0
  9 10  1  0
 10 11  1  0
 11 12  1  0
 11 13  2  0
  7 14  1  0
 10 14  1  0
 14 15  1  0
 15 16  1  0
 16 17  2  0
 17 18  1  0
 15 19  2  0
 18 19  1  0
  1 20  1  0
  1 21  1  0
  1 22  1  0
  5 23  1  0
  6 24  1  0
  6 25  1  0
  7 26  1  6
  8 27  1  0
  8 28  1  0
  9 29  1  0
  9 30  1  0
 10 31  1  1
 12 32  1  0
 12 33  1  0
 14 34  1  1
 16 35  1  0
 17 36  1  0
 19 37  1  0
M  END
