
     RDKit          3D

 41 44  0  0  0  0  0  0  0  0999 V2000
   13.3490   -2.6530   24.1470 C   0  0  0  0  0  0  0  0  0  0  0  0
   13.0490   -1.3480   24.5930 O   0  0  0  0  0  0  0  0  0  0  0  0
   13.1720   -0.4030   23.5990 C   0  0  0  0  0  0  0  0  0  0  0  0
   12.8670   -0.8230   22.3110 O   0  0  0  0  0  0  0  0  0  0  0  0
   11.5360   -1.0220   22.4630 C   0  0  0  0  0  0  0  0  0  0  0  0
   11.0560   -0.0430   23.5300 C   0  0  0  0  0  0  0  0  0  0  0  0
    9.5570    0.0460   23.8020 C   0  0  2  0  0  0  0  0  0  0  0  0
    8.7240   -0.9820   23.3600 C   0  0  0  0  0  0  0  0  0  0  0  0
    7.3020   -0.4480   23.2210 C   0  0  0  0  0  0  0  0  0  0  0  0
    7.4170    0.9490   23.3200 C   0  0  0  0  0  0  0  0  0  0  0  0
    8.8420    1.3150   23.5910 C   0  0  2  0  0  0  0  0  0  0  0  0
    9.2760    2.3780   22.4850 C   0  0  0  0  0  0  0  0  0  0  0  0
    8.5810    2.2550   21.2360 O   0  0  0  0  0  0  0  0  0  0  0  0
   10.3480    3.2630   22.7660 C   0  0  2  0  0  0  0  0  0  0  0  0
   10.0620    4.8140   23.5520 S   0  0  1  0  0  0  0  0  0  0  0  0
    8.9280    5.5560   22.5670 N   0  0  0  0  0  0  0  0  0  0  0  0
    9.3660    4.7600   24.8230 O   0  0  0  0  0  0  0  0  0  0  0  0
   11.2300    5.6530   23.3880 O   0  0  0  0  0  0  0  0  0  0  0  0
   10.9030    2.3240   23.5210 C   0  0  0  0  0  0  0  0  0  0  0  0
   12.2810    1.8040   23.2950 C   0  0  0  0  0  0  0  0  0  0  0  0
   12.2480    0.8220   24.0960 C   0  0  1  0  0  0  0  0  0  0  0  0
   11.2580    1.6440   23.7910 C   0  0  0  0  0  0  0  0  0  0  0  0
   11.5600    2.8700   22.7780 C   0  0  0  0  0  0  0  0  0  0  0  0
   14.0270   -2.5800   23.2950 H   0  0  0  0  0  0  0  0  0  0  0  0
   12.4420   -3.1640   23.8160 H   0  0  0  0  0  0  0  0  0  0  0  0
   13.8310   -3.2330   24.9360 H   0  0  0  0  0  0  0  0  0  0  0  0
   10.9470   -1.7280   21.8830 H   0  0  0  0  0  0  0  0  0  0  0  0
    9.5140   -0.0800   24.8950 H   0  0  0  0  0  0  0  0  0  0  0  0
    9.0780   -1.3860   22.4000 H   0  0  0  0  0  0  0  0  0  0  0  0
    8.7290   -1.8070   24.0820 H   0  0  0  0  0  0  0  0  0  0  0  0
    6.8550   -0.8780   22.3270 H   0  0  0  0  0  0  0  0  0  0  0  0
    6.7100   -0.8030   24.0720 H   0  0  0  0  0  0  0  0  0  0  0  0
    7.0480    1.3860   22.3930 H   0  0  0  0  0  0  0  0  0  0  0  0
    6.7530    1.3880   24.0610 H   0  0  0  0  0  0  0  0  0  0  0  0
    8.7570    1.9400   24.4900 H   0  0  0  0  0  0  0  0  0  0  0  0
    9.1960    5.4370   21.5930 H   0  0  0  0  0  0  0  0  0  0  0  0
    8.8080    6.5360   22.8260 H   0  0  0  0  0  0  0  0  0  0  0  0
   10.3120    1.8520   24.3050 H   0  0  0  0  0  0  0  0  0  0  0  0
   13.1060    2.0370   22.6270 H   0  0  0  0  0  0  0  0  0  0  0  0
   10.2950    1.4010   24.2470 H   0  0  0  0  0  0  0  0  0  0  0  0
   12.4910    3.1590   22.2980 H   0  0  0  0  0  0  0  0  0  0  0  0
  1  2  1  0
  2  3  1  0
  3  4  2  0
  4  5  1  0
  5  6  2  0
  6  7  1  0
  7  8  1  0
  8  9  1  0
  9 10  1  0
  7 11  1  0
 10 11  1  0
 11 12  1  0
 12 13  2  0
 14 12  1  6
 14 15  1  0
 15 16  1  6
 15 17  2  0
 15 18  2  0
 14 19  1  0
 19 20  2  0
 21  3  1  1
  6 21  1  0
 20 21  1  0
 21 22  1  0
 14 23  1  0
 22 23  2  0
  1 24  1  0
  1 25  1  0
  1 26  1  0
  5 27  1  0
  7 28  1  1
  8 29  1  0
  8 30  1  0
  9 31  1  0
  9 32  1  0
 10 33  1  0
 10 34  1  0
 11 35  1  1
 16 36  1  0
 16 37  1  0
 19 38  1  0
 20 39  1  0
 22 40  1  0
 23 41  1  0
M  CHG  1   4   1
M  END
