LIG
     RDKit          3D

 40 42  0  0  0  0  0  0  0  0999 V2000
    5.3930    0.6630   21.8670 C   0  0  0  0  0  0  0  0  0  0  0  0
    5.8360    0.5550   20.4100 C   0  0  0  0  0  0  0  0  0  0  0  0
    5.0650    1.0940   19.3800 C   0  0  0  0  0  0  0  0  0  0  0  0
    5.5190    0.9700   18.0740 C   0  0  0  0  0  0  0  0  0  0  0  0
    6.6520    0.3680   17.7870 N   0  0  0  0  0  0  0  0  0  0  0  0
    7.4050   -0.1450   18.7400 C   0  0  0  0  0  0  0  0  0  0  0  0
    7.0320   -0.0760   20.0760 C   0  0  0  0  0  0  0  0  0  0  0  0
    7.8860   -0.6570   21.1000 N   0  0  0  0  0  0  0  0  0  0  0  0
    8.9090   -0.5240   22.2435 C   0  0  0  0  0  0  0  0  0  0  0  0
    7.3150   -0.3490   23.3420 C   0  0  0  0  0  0  0  0  0  0  0  0
    7.6990    1.1640   23.7480 C   0  0  0  0  0  0  0  0  0  0  0  0
    9.0240    1.2620   23.5980 C   0  0  2  0  0  0  0  0  0  0  0  0
    9.4080    1.9150   22.2270 C   0  0  0  0  0  0  0  0  0  0  0  0
   10.1930    3.1570   22.2260 N   0  0  0  0  0  0  0  0  0  0  0  0
    9.2665    1.2045   21.0660 O   0  0  0  0  0  0  0  0  0  0  0  0
    9.6050   -0.2970   23.6880 C   0  0  2  0  0  0  0  0  0  0  0  0
   10.5310   -0.5025   22.8200 C   0  0  0  0  0  0  0  0  0  0  0  0
   12.0340    0.5480   23.4680 C   0  0  0  0  0  0  0  0  0  0  0  0
   13.2920    0.3390   22.8490 C   0  0  0  0  0  0  0  0  0  0  0  0
   13.1050   -1.0630   21.8160 S   0  0  0  0  0  0  0  0  0  0  0  0
   11.4160   -1.3800   22.1780 C   0  0  0  0  0  0  0  0  0  0  0  0
    6.2038    0.3402   22.5216 H   0  0  0  0  0  0  0  0  0  0  0  0
    5.4607   -0.3125   22.3513 H   0  0  0  0  0  0  0  0  0  0  0  0
    6.0329    1.3527   22.4204 H   0  0  0  0  0  0  0  0  0  0  0  0
    4.1326    1.6076   19.5742 H   0  0  0  0  0  0  0  0  0  0  0  0
    4.9537    1.3726   17.2493 H   0  0  0  0  0  0  0  0  0  0  0  0
    8.3025   -0.6115   18.4198 H   0  0  0  0  0  0  0  0  0  0  0  0
    7.9658   -1.8197   20.7777 H   0  0  0  0  0  0  0  0  0  0  0  0
    8.6105   -1.9351   22.5958 H   0  0  0  0  0  0  0  0  0  0  0  0
    6.5652   -0.4471   22.7227 H   0  0  0  0  0  0  0  0  0  0  0  0
    7.5503   -0.9946   24.0781 H   0  0  0  0  0  0  0  0  0  0  0  0
    7.3000    1.2914   24.7809 H   0  0  0  0  0  0  0  0  0  0  0  0
    7.0424    1.8087   23.1154 H   0  0  0  0  0  0  0  0  0  0  0  0
    9.5913    1.8202   24.3609 H   0  0  0  0  0  0  0  0  0  0  0  0
    9.9479    3.7846   21.4997 H   0  0  0  0  0  0  0  0  0  0  0  0
   11.0638    3.1883   22.6819 H   0  0  0  0  0  0  0  0  0  0  0  0
    9.2483   -0.8327   24.1949 H   0  0  0  0  0  0  0  0  0  0  0  0
   11.7506    1.1729   24.2420 H   0  0  0  0  0  0  0  0  0  0  0  0
   14.1766    0.8478   22.9278 H   0  0  0  0  0  0  0  0  0  0  0  0
   11.0558   -2.4360   21.8295 H   0  0  0  0  0  0  0  0  0  0  0  0
  1  2  1  0
  2  3  4  0
  3  4  4  0
  4  5  4  0
  5  6  4  0
  6  7  4  0
  7  8  1  0
  8  9  1  0
  9 10  1  0
 10 11  1  0
 11 12  1  0
 12 13  1  0
 13 14  1  0
 13 15  2  0
 12 16  1  0
 16 17  1  0
 17 18  4  0
 18 19  4  0
 19 20  4  0
 20 21  4  0
  7  2  4  0
 16  9  1  0
 21 17  4  0
  1 22  1  0
  1 23  1  0
  1 24  1  0
  3 25  1  0
  4 26  1  0
  6 27  1  0
  8 28  1  0
  9 29  1  0
 10 30  1  0
 10 31  1  0
 11 32  1  0
 11 33  1  0
 12 34  1  1
 14 35  1  0
 14 36  1  0
 16 37  1  1
 18 38  1  0
 19 39  1  0
 21 40  1  0
M  END
