LIG
     RDKit          3D

 42 44  0  0  0  0  0  0  0  0999 V2000
   10.1930    3.1570   22.2260 N   0  0  0  0  0  0  0  0  0  0  0  0
    9.4080    1.9150   22.2270 C   0  0  0  0  0  0  0  0  0  0  0  0
    9.0780    1.4060   21.1760 O   0  0  0  0  0  0  0  0  0  0  0  0
    9.0240    1.2620   23.5980 C   0  0  1  0  0  0  0  0  0  0  0  0
    7.6990    1.1640   23.7480 C   0  0  0  0  0  0  0  0  0  0  0  0
    7.3150   -0.3490   23.3420 C   0  0  0  0  0  0  0  0  0  0  0  0
    8.6870   -1.0390   23.0120 C   0  0  0  0  0  0  0  0  0  0  0  0
    9.6520   -0.8985   23.9670 C   0  0  1  0  0  0  0  0  0  0  0  0
   11.0540   -0.7620   23.3800 C   0  0  0  0  0  0  0  0  0  0  0  0
   12.0070    0.2585   23.8290 C   0  0  0  0  0  0  0  0  0  0  0  0
   13.2410    0.1795   23.1350 C   0  0  0  0  0  0  0  0  0  0  0  0
   13.1310   -1.0885   22.0425 S   0  0  0  0  0  0  0  0  0  0  0  0
   11.5660   -1.5835   22.3685 C   0  0  0  0  0  0  0  0  0  0  0  0
    9.5440   -2.6880   24.5510 N   0  0  0  0  0  0  0  0  0  0  0  0
   10.6550   -3.2590   25.2740 C   0  0  0  0  0  0  0  0  0  0  0  0
   10.4200   -4.6660   25.8330 C   0  0  0  0  0  0  0  0  0  0  0  0
    9.1820   -4.8160   26.5550 C   0  0  0  0  0  0  0  0  0  0  0  0
    9.3040   -4.2150   27.8200 O   0  0  0  0  0  0  0  0  0  0  0  0
    8.0790   -4.2690   25.8080 C   0  0  0  0  0  0  0  0  0  0  0  0
    8.3310   -2.8350   25.3360 C   0  0  0  0  0  0  0  0  0  0  0  0
   10.9720    3.2050   22.8286 H   0  0  0  0  0  0  0  0  0  0  0  0
   10.5619    3.3693   23.1219 H   0  0  0  0  0  0  0  0  0  0  0  0
    9.6098    1.6991   24.4273 H   0  0  0  0  0  0  0  0  0  0  0  0
    7.0320    1.8169   23.1315 H   0  0  0  0  0  0  0  0  0  0  0  0
    7.2931    1.2948   24.7787 H   0  0  0  0  0  0  0  0  0  0  0  0
    6.6629   -0.3490   22.4876 H   0  0  0  0  0  0  0  0  0  0  0  0
    6.8302   -0.8281   24.1734 H   0  0  0  0  0  0  0  0  0  0  0  0
    8.4153   -2.1142   22.6625 H   0  0  0  0  0  0  0  0  0  0  0  0
    8.9538   -0.6030   21.9738 H   0  0  0  0  0  0  0  0  0  0  0  0
   11.8347    0.9838   24.5879 H   0  0  0  0  0  0  0  0  0  0  0  0
   14.0911    0.7780   23.2476 H   0  0  0  0  0  0  0  0  0  0  0  0
   11.1063   -2.3712   21.8589 H   0  0  0  0  0  0  0  0  0  0  0  0
   10.9528   -2.6098   26.1251 H   0  0  0  0  0  0  0  0  0  0  0  0
   11.5511   -3.3286   24.6216 H   0  0  0  0  0  0  0  0  0  0  0  0
   10.4606   -5.3676   24.9624 H   0  0  0  0  0  0  0  0  0  0  0  0
   11.3120   -4.9447   26.4477 H   0  0  0  0  0  0  0  0  0  0  0  0
    9.0189   -5.8953   26.7559 H   0  0  0  0  0  0  0  0  0  0  0  0
    9.5589   -3.2808   27.7001 H   0  0  0  0  0  0  0  0  0  0  0  0
    7.8449   -4.8974   24.9169 H   0  0  0  0  0  0  0  0  0  0  0  0
    7.1211   -4.2819   26.3834 H   0  0  0  0  0  0  0  0  0  0  0  0
    7.4742   -2.5175   24.7192 H   0  0  0  0  0  0  0  0  0  0  0  0
    8.3029   -2.1791   26.2198 H   0  0  0  0  0  0  0  0  0  0  0  0
  1  2  1  0
  2  3  2  0
  2  4  1  0
  4  5  1  0
  5  6  1  0
  6  7  1  0
  7  8  1  0
  8  9  1  6
  9 10  4  0
 10 11  4  0
 11 12  4  0
 12 13  4  0
  8 14  1  0
 14 15  1  0
 15 16  1  0
 16 17  1  0
 17 18  1  0
 17 19  1  0
 19 20  1  0
  8  4  1  0
 13  9  4  0
 20 14  1  0
  1 21  1  0
  1 22  1  0
  4 23  1  1
  5 24  1  0
  5 25  1  0
  6 26  1  0
  6 27  1  0
  7 28  1  0
  7 29  1  0
 10 30  1  0
 11 31  1  0
 13 32  1  0
 15 33  1  0
 15 34  1  0
 16 35  1  0
 16 36  1  0
 17 37  1  0
 18 38  1  0
 19 39  1  0
 19 40  1  0
 20 41  1  0
 20 42  1  0
M  END
