LIG
     RDKit          3D

 37 38  0  0  0  0  0  0  0  0999 V2000
    6.4340   -4.9520   26.5780 C   0  0  0  0  0  0  0  0  0  0  0  0
    8.0950   -4.3580   26.1540 S   0  0  0  0  0  6  0  0  0  0  0  0
    8.6390   -3.5100   27.2010 O   0  0  0  0  0  0  0  0  0  0  0  0
    9.0830   -5.4410   26.1700 O   0  0  0  0  0  0  0  0  0  0  0  0
    8.0610   -3.5350   24.6620 N   0  0  0  0  0  0  0  0  0  0  0  0
    9.3140   -3.0270   24.1660 C   0  0  0  0  0  0  0  0  0  0  0  0
    8.9485   -1.3935   23.1795 C   0  0  0  0  0  0  0  0  0  0  0  0
    7.3150   -0.3490   23.3420 C   0  0  0  0  0  0  0  0  0  0  0  0
    7.6990    1.1640   23.7480 C   0  0  0  0  0  0  0  0  0  0  0  0
    9.0240    1.2620   23.5980 C   0  0  2  0  0  0  0  0  0  0  0  0
    9.4080    1.9150   22.2270 C   0  0  0  0  0  0  0  0  0  0  0  0
   10.1930    3.1570   22.2260 N   0  0  0  0  0  0  0  0  0  0  0  0
    9.0780    1.4060   21.1760 O   0  0  0  0  0  0  0  0  0  0  0  0
   10.2570   -0.1965   23.9710 C   0  0  2  0  0  0  0  0  0  0  0  0
   10.8185   -0.7615   23.2435 C   0  0  0  0  0  0  0  0  0  0  0  0
   12.1160    0.4790   23.8730 C   0  0  0  0  0  0  0  0  0  0  0  0
   13.2355    0.0980   23.1595 C   0  0  0  0  0  0  0  0  0  0  0  0
   12.9880   -1.1300   22.2180 S   0  0  0  0  0  0  0  0  0  0  0  0
   11.4995   -1.5365   22.3840 C   0  0  0  0  0  0  0  0  0  0  0  0
    6.3009   -4.7906   27.6446 H   0  0  0  0  0  0  0  0  0  0  0  0
    5.7113   -4.3737   26.0104 H   0  0  0  0  0  0  0  0  0  0  0  0
    6.3839   -6.0107   26.3413 H   0  0  0  0  0  0  0  0  0  0  0  0
    7.3041   -3.7883   24.0710 H   0  0  0  0  0  0  0  0  0  0  0  0
    9.9429   -2.6347   24.9174 H   0  0  0  0  0  0  0  0  0  0  0  0
    9.8377   -3.5812   23.4445 H   0  0  0  0  0  0  0  0  0  0  0  0
    9.2313   -1.5049   22.2423 H   0  0  0  0  0  0  0  0  0  0  0  0
    6.9189   -0.4384   22.3603 H   0  0  0  0  0  0  0  0  0  0  0  0
    6.7384   -0.8601   24.0591 H   0  0  0  0  0  0  0  0  0  0  0  0
    7.3314    1.2679   24.7981 H   0  0  0  0  0  0  0  0  0  0  0  0
    7.0286    1.8308   23.1497 H   0  0  0  0  0  0  0  0  0  0  0  0
    9.5254    2.0913   24.3326 H   0  0  0  0  0  0  0  0  0  0  0  0
    9.8627    3.9052   21.6719 H   0  0  0  0  0  0  0  0  0  0  0  0
   10.3297    3.5295   23.1338 H   0  0  0  0  0  0  0  0  0  0  0  0
    9.9362   -0.4503   24.9112 H   0  0  0  0  0  0  0  0  0  0  0  0
   11.8235    1.0905   24.5158 H   0  0  0  0  0  0  0  0  0  0  0  0
   14.2199    0.6133   23.2430 H   0  0  0  0  0  0  0  0  0  0  0  0
   11.0531   -2.3921   21.8144 H   0  0  0  0  0  0  0  0  0  0  0  0
  1  2  1  0
  2  3  2  0
  2  4  2  0
  2  5  1  0
  5  6  1  0
  6  7  1  0
  7  8  1  0
  8  9  1  0
  9 10  1  0
 10 11  1  0
 11 12  1  0
 11 13  2  0
 10 14  1  0
 14 15  1  0
 15 16  4  0
 16 17  4  0
 17 18  4  0
 18 19  4  0
 14  7  1  0
 19 15  4  0
  1 20  1  0
  1 21  1  0
  1 22  1  0
  5 23  1  0
  6 24  1  0
  6 25  1  0
  7 26  1  0
  8 27  1  0
  8 28  1  0
  9 29  1  0
  9 30  1  0
 10 31  1  1
 12 32  1  0
 12 33  1  0
 14 34  1  1
 16 35  1  0
 17 36  1  0
 19 37  1  0
M  END
