
     RDKit          3D

 44 46  0  0  0  0  0  0  0  0999 V2000
   13.6960   -1.6150   21.2240 N   0  0  0  0  0  0  0  0  0  0  0  0
   13.0620   -1.0010   21.9300 C   0  0  0  0  0  0  0  0  0  0  0  0
   11.9790   -0.2560   22.5940 C   0  0  0  0  0  0  0  0  0  0  0  0
   10.8950   -1.0920   22.7990 C   0  0  0  0  0  0  0  0  0  0  0  0
    9.6620   -0.5180   23.4310 C   0  0  0  0  0  0  0  0  0  0  0  0
    9.7860    0.8790   23.7550 C   0  0  0  0  0  0  0  0  0  0  0  0
    8.9150    1.6910   24.3790 C   0  0  0  0  0  0  0  0  0  0  0  0
    7.8530    0.9600   24.6490 N   0  0  0  0  0  0  0  0  0  0  0  0
    7.1250    1.2700   23.5740 C   0  0  0  0  0  0  0  0  0  0  0  0
    7.4870    2.0300   22.6820 O   0  0  0  0  0  0  0  0  0  0  0  0
    5.7820    0.7080   23.3920 N   0  0  0  0  0  0  0  0  0  0  0  0
    5.1260    0.4540   24.7240 C   0  0  0  0  0  0  0  0  0  0  0  0
    3.7070    0.8870   24.9260 C   0  0  0  0  0  0  0  0  0  0  0  0
    3.0740    1.3330   23.9670 O   0  0  0  0  0  0  0  0  0  0  0  0
    3.9040    1.9990   22.9980 C   0  0  0  0  0  0  0  0  0  0  0  0
    4.9470    1.3060   22.4130 C   0  0  0  0  0  0  0  0  0  0  0  0
   10.8330    1.6870   23.4950 C   0  0  0  0  0  0  0  0  0  0  0  0
   10.6620    3.0150   23.7890 C   0  0  0  0  0  0  0  0  0  0  0  0
   11.6160    3.9370   23.5460 C   0  0  0  0  0  0  0  0  0  0  0  0
   11.1430    5.6490   23.9230 S   0  0  2  0  0  0  0  0  0  0  0  0
    9.6990    5.7510   23.0610 N   0  0  0  0  0  0  0  0  0  0  0  0
   12.0310    6.5620   23.2550 O   0  0  0  0  0  0  0  0  0  0  0  0
   10.7070    5.8310   25.2820 O   0  0  0  0  0  0  0  0  0  0  0  0
   12.8600    3.5650   23.0370 C   0  0  0  0  0  0  0  0  0  0  0  0
   12.9750    2.0540   22.7660 C   0  0  0  0  0  0  0  0  0  0  0  0
   11.9710    1.1520   22.9410 C   0  0  0  0  0  0  0  0  0  0  0  0
   10.9260   -2.1450   22.5100 H   0  0  0  0  0  0  0  0  0  0  0  0
    8.7650   -1.0930   23.6310 H   0  0  0  0  0  0  0  0  0  0  0  0
    9.3280    2.0560   25.3170 H   0  0  0  0  0  0  0  0  0  0  0  0
    8.6560    2.5780   23.7880 H   0  0  0  0  0  0  0  0  0  0  0  0
    7.3940    1.1560   25.5260 H   0  0  0  0  0  0  0  0  0  0  0  0
    5.7140    0.9880   25.4780 H   0  0  0  0  0  0  0  0  0  0  0  0
    5.3480   -0.5980   24.8950 H   0  0  0  0  0  0  0  0  0  0  0  0
    3.1280    0.0480   25.3320 H   0  0  0  0  0  0  0  0  0  0  0  0
    3.6960    1.6410   25.7320 H   0  0  0  0  0  0  0  0  0  0  0  0
    3.2190    2.3830   22.2380 H   0  0  0  0  0  0  0  0  0  0  0  0
    4.3480    2.8650   23.4940 H   0  0  0  0  0  0  0  0  0  0  0  0
    4.5570    0.5090   21.7670 H   0  0  0  0  0  0  0  0  0  0  0  0
    5.5560    1.9290   21.7520 H   0  0  0  0  0  0  0  0  0  0  0  0
    9.7130    3.3270   24.2090 H   0  0  0  0  0  0  0  0  0  0  0  0
    9.6860    4.9880   22.3730 H   0  0  0  0  0  0  0  0  0  0  0  0
    9.6610    6.6750   22.6180 H   0  0  0  0  0  0  0  0  0  0  0  0
   13.6170    4.3400   22.8810 H   0  0  0  0  0  0  0  0  0  0  0  0
   13.9230    1.7410   22.4040 H   0  0  0  0  0  0  0  0  0  0  0  0
  1  2  3  0
  2  3  1  0
  3  4  2  0
  4  5  1  0
  5  6  2  0
  6  7  1  0
  7  8  1  0
  8  9  1  0
  9 10  2  0
  9 11  1  0
 11 12  1  0
 12 13  1  0
 13 14  1  0
 14 15  1  0
 11 16  1  0
 15 16  1  0
  6 17  1  0
 17 18  1  0
 18 19  2  0
 19 20  1  0
 20 21  1  6
 20 22  2  0
 20 23  2  0
 19 24  1  0
 24 25  2  0
  3 26  1  0
 17 26  2  0
 25 26  1  0
  4 27  1  0
  5 28  1  0
  7 29  1  0
  7 30  1  0
  8 31  1  0
 12 32  1  0
 12 33  1  0
 13 34  1  0
 13 35  1  0
 15 36  1  0
 15 37  1  0
 16 38  1  0
 16 39  1  0
 18 40  1  0
 21 41  1  0
 21 42  1  0
 24 43  1  0
 25 44  1  0
M  END
