LIG
     RDKit          3D

 39 41  0  0  0  0  0  0  0  0999 V2000
    9.3520    5.1750   22.9550 N   0  0  0  0  0  0  0  0  0  0  0  0
   10.6680    5.1850   23.9350 S   0  0  0  0  0  6  0  0  0  0  0  0
   11.5530    6.1960   23.4620 O   0  0  0  0  0  0  0  0  0  0  0  0
   10.1890    5.2490   25.2610 O   0  0  0  0  0  0  0  0  0  0  0  0
   11.3350    3.6620   23.6540 C   0  0  0  0  0  0  0  0  0  0  0  0
   12.5830    3.5320   23.0260 C   0  0  0  0  0  0  0  0  0  0  0  0
   13.1480    2.2850   22.7650 C   0  0  0  0  0  0  0  0  0  0  0  0
   12.8225    0.5780   23.2760 C   0  0  0  0  0  0  0  0  0  0  0  0
   13.2100   -0.8645   22.4765 S   0  0  0  0  0  0  0  0  0  0  0  0
   11.7160   -1.7870   22.5590 C   0  0  0  0  0  0  0  0  0  0  0  0
   11.0750   -1.1430   23.6660 C   0  0  0  0  0  0  0  0  0  0  0  0
    9.6990   -1.5000   24.2460 C   0  0  0  0  0  0  0  0  0  0  0  0
    9.5440   -2.6880   24.5510 N   0  0  0  0  0  0  0  0  0  0  0  0
    8.3310   -2.8350   25.3360 C   0  0  0  0  0  0  0  0  0  0  0  0
    8.0790   -4.2690   25.8080 C   0  0  0  0  0  0  0  0  0  0  0  0
    9.1820   -4.8160   26.5550 C   0  0  0  0  0  0  0  0  0  0  0  0
    9.3040   -4.2150   27.8200 O   0  0  0  0  0  0  0  0  0  0  0  0
   10.4200   -4.6660   25.8330 C   0  0  0  0  0  0  0  0  0  0  0  0
   10.6550   -3.2590   25.2740 C   0  0  0  0  0  0  0  0  0  0  0  0
   11.5970    0.5855   23.9795 C   0  0  0  0  0  0  0  0  0  0  0  0
   10.6670    2.4740   24.0250 C   0  0  0  0  0  0  0  0  0  0  0  0
    9.0306    4.2385   22.6790 H   0  0  0  0  0  0  0  0  0  0  0  0
    8.5869    5.7104   23.3863 H   0  0  0  0  0  0  0  0  0  0  0  0
   13.1386    4.4379   22.7366 H   0  0  0  0  0  0  0  0  0  0  0  0
   14.0755    2.2012   22.0571 H   0  0  0  0  0  0  0  0  0  0  0  0
   11.4978   -2.5257   21.9697 H   0  0  0  0  0  0  0  0  0  0  0  0
    9.4854   -0.7331   25.0752 H   0  0  0  0  0  0  0  0  0  0  0  0
    8.9886   -1.1116   23.4305 H   0  0  0  0  0  0  0  0  0  0  0  0
    8.3465   -2.1955   26.2449 H   0  0  0  0  0  0  0  0  0  0  0  0
    7.4498   -2.4727   24.7585 H   0  0  0  0  0  0  0  0  0  0  0  0
    7.8154   -4.8760   24.9176 H   0  0  0  0  0  0  0  0  0  0  0  0
    7.1575   -4.2761   26.4239 H   0  0  0  0  0  0  0  0  0  0  0  0
    9.4934   -3.0566   26.3941 H   0  0  0  0  0  0  0  0  0  0  0  0
    9.2716   -4.9207   28.4924 H   0  0  0  0  0  0  0  0  0  0  0  0
   10.4719   -5.3950   24.9828 H   0  0  0  0  0  0  0  0  0  0  0  0
   11.3062   -4.9548   26.4549 H   0  0  0  0  0  0  0  0  0  0  0  0
   10.9044   -2.5893   26.1188 H   0  0  0  0  0  0  0  0  0  0  0  0
   11.5719   -3.3040   24.6523 H   0  0  0  0  0  0  0  0  0  0  0  0
    9.7195    2.2424   24.3673 H   0  0  0  0  0  0  0  0  0  0  0  0
  1  2  1  0
  2  3  2  0
  2  4  2  0
  2  5  1  0
  5  6  4  0
  6  7  4  0
  7  8  4  0
  8  9  4  0
  9 10  4  0
 10 11  4  0
 11 12  1  0
 12 13  1  0
 13 14  1  0
 14 15  1  0
 15 16  1  0
 16 17  1  0
 16 18  1  0
 18 19  1  0
 11 20  4  0
 20 21  4  0
 21  5  4  0
 20  8  4  0
 19 13  1  0
  1 22  1  0
  1 23  1  0
  6 24  1  0
  7 25  1  0
 10 26  1  0
 12 27  1  0
 12 28  1  0
 14 29  1  0
 14 30  1  0
 15 31  1  0
 15 32  1  0
 16 33  1  0
 17 34  1  0
 18 35  1  0
 18 36  1  0
 19 37  1  0
 19 38  1  0
 21 39  1  0
M  END
