
     RDKit          3D

 39 41  0  0  0  0  0  0  0  0999 V2000
    8.8730    5.0750   22.7060 N   0  0  0  0  0  0  0  0  0  0  0  0
   10.2390    4.9500   23.7080 S   0  0  1  0  0  0  0  0  0  0  0  0
   11.2090    5.9340   23.2610 O   0  0  0  0  0  0  0  0  0  0  0  0
    9.7460    4.9870   25.0670 O   0  0  0  0  0  0  0  0  0  0  0  0
   10.8660    3.2910   23.3550 C   0  0  0  0  0  0  0  0  0  0  0  0
   12.2940    3.3230   23.0450 C   0  0  0  0  0  0  0  0  0  0  0  0
   12.9780    2.1770   22.7730 C   0  0  0  0  0  0  0  0  0  0  0  0
   12.2520    0.8530   22.7800 C   0  0  0  0  0  0  0  0  0  0  0  0
   12.9970   -0.6700   22.4280 S   0  0  0  0  0  0  0  0  0  0  0  0
   11.5470   -1.4780   22.6940 C   0  0  0  0  0  0  0  0  0  0  0  0
   10.4790   -0.7190   23.0660 C   0  0  0  0  0  0  0  0  0  0  0  0
    9.2460   -1.5860   23.3690 C   0  0  0  0  0  0  0  0  0  0  0  0
    8.6840   -2.4340   24.0010 N   0  0  0  0  0  0  0  0  0  0  0  0
    7.3470   -2.4720   24.3620 C   0  0  0  0  0  0  0  0  0  0  0  0
    7.0490   -3.5500   25.3840 C   0  0  0  0  0  0  0  0  0  0  0  0
    8.3710   -3.8840   25.9950 C   0  0  1  0  0  0  0  0  0  0  0  0
    8.2250   -4.6210   27.2190 O   0  0  0  0  0  0  0  0  0  0  0  0
    9.1460   -4.4260   25.0110 C   0  0  0  0  0  0  0  0  0  0  0  0
    9.1870   -3.6240   23.8460 C   0  0  0  0  0  0  0  0  0  0  0  0
   10.8630    0.7890   23.0920 C   0  0  0  0  0  0  0  0  0  0  0  0
   10.1770    2.0350   23.3650 C   0  0  0  0  0  0  0  0  0  0  0  0
    9.1770    5.1070   21.7220 H   0  0  0  0  0  0  0  0  0  0  0  0
    8.2260    4.3090   22.8990 H   0  0  0  0  0  0  0  0  0  0  0  0
   12.8400    4.2730   23.0350 H   0  0  0  0  0  0  0  0  0  0  0  0
   14.0300    2.1980   22.5540 H   0  0  0  0  0  0  0  0  0  0  0  0
   11.3600   -2.5580   22.6250 H   0  0  0  0  0  0  0  0  0  0  0  0
    8.5340   -0.7790   23.5270 H   0  0  0  0  0  0  0  0  0  0  0  0
    8.9250   -1.9670   22.4050 H   0  0  0  0  0  0  0  0  0  0  0  0
    7.0890   -1.5260   24.8510 H   0  0  0  0  0  0  0  0  0  0  0  0
    6.7680   -2.5130   23.4390 H   0  0  0  0  0  0  0  0  0  0  0  0
    6.6350   -4.4390   24.8940 H   0  0  0  0  0  0  0  0  0  0  0  0
    6.3330   -3.1930   26.1370 H   0  0  0  0  0  0  0  0  0  0  0  0
    8.8190   -2.9780   26.3500 H   0  0  0  0  0  0  0  0  0  0  0  0
    7.3530   -5.0510   27.1960 H   0  0  0  0  0  0  0  0  0  0  0  0
    8.6530   -5.3490   24.6990 H   0  0  0  0  0  0  0  0  0  0  0  0
   10.1640   -4.6910   25.2610 H   0  0  0  0  0  0  0  0  0  0  0  0
   10.2130   -3.6070   23.4800 H   0  0  0  0  0  0  0  0  0  0  0  0
    8.6390   -4.0420   22.9970 H   0  0  0  0  0  0  0  0  0  0  0  0
    9.1110    1.9320   23.5940 H   0  0  0  0  0  0  0  0  0  0  0  0
  2  1  1  6
  2  3  2  0
  2  4  2  0
  2  5  1  0
  5  6  2  0
  6  7  1  0
  7  8  2  0
  8  9  1  0
  9 10  1  0
 10 11  2  0
 11 12  1  0
 12 13  1  0
 13 14  1  0
 14 15  1  0
 15 16  1  0
 16 17  1  0
 16 18  1  0
 13 19  1  0
 18 19  1  0
  8 20  1  0
 11 20  1  0
  5 21  1  0
 20 21  2  0
  1 22  1  0
  1 23  1  0
  6 24  1  0
  7 25  1  0
 10 26  1  0
 12 27  1  0
 12 28  1  0
 14 29  1  0
 14 30  1  0
 15 31  1  0
 15 32  1  0
 16 33  1  1
 17 34  1  0
 18 35  1  0
 18 36  1  0
 19 37  1  0
 19 38  1  0
 21 39  1  0
M  END
