LIG
     RDKit          3D

 29 30  0  0  0  0  0  0  0  0999 V2000
    9.9150   -0.3810   24.9080 C   0  0  0  0  0  0  0  0  0  0  0  0
   11.0650   -0.3310   24.0360 N   0  0  0  0  0  0  0  0  0  0  0  0
   11.7030   -1.5600   23.6680 C   0  0  0  0  0  0  0  0  0  0  0  0
   12.7120   -1.4530   22.5630 C   0  0  0  0  0  0  0  0  0  0  0  0
   13.4625   -0.4565   22.7445 C   0  0  0  0  0  0  0  0  0  0  0  0
   12.6690    1.0845   23.0835 C   0  0  0  0  0  0  0  0  0  0  0  0
   13.2905    2.2745   22.6970 C   0  0  0  0  0  0  0  0  0  0  0  0
   12.6520    3.4905   22.9280 C   0  0  0  0  0  0  0  0  0  0  0  0
   11.3935    3.5225   23.5460 C   0  0  0  0  0  0  0  0  0  0  0  0
   10.5835    5.0340   23.8340 S   0  0  0  0  0  6  0  0  0  0  0  0
   11.5095    6.2265   23.4615 N   0  0  0  0  0  0  0  0  0  0  0  0
    9.3035    5.0455   22.9575 O   0  0  0  0  0  0  0  0  0  0  0  0
   10.0890    5.0275   25.1785 O   0  0  0  0  0  0  0  0  0  0  0  0
   10.7850    2.3215   23.9305 C   0  0  0  0  0  0  0  0  0  0  0  0
   11.4170    1.0885   23.6990 C   0  0  0  0  0  0  0  0  0  0  0  0
    8.9910   -0.1319   24.3687 H   0  0  0  0  0  0  0  0  0  0  0  0
    9.1596   -1.0877   24.5399 H   0  0  0  0  0  0  0  0  0  0  0  0
    9.7802   -1.3836   25.3369 H   0  0  0  0  0  0  0  0  0  0  0  0
   10.9234   -2.3297   23.4099 H   0  0  0  0  0  0  0  0  0  0  0  0
   12.2208   -2.0000   24.5619 H   0  0  0  0  0  0  0  0  0  0  0  0
   13.2380   -2.4640   22.5207 H   0  0  0  0  0  0  0  0  0  0  0  0
   12.1264   -1.4570   21.5869 H   0  0  0  0  0  0  0  0  0  0  0  0
   14.1261   -0.1030   21.8860 H   0  0  0  0  0  0  0  0  0  0  0  0
   14.1933   -0.4885   23.6142 H   0  0  0  0  0  0  0  0  0  0  0  0
   14.2675    2.2670   22.2301 H   0  0  0  0  0  0  0  0  0  0  0  0
   13.1434    4.4238   22.6315 H   0  0  0  0  0  0  0  0  0  0  0  0
   12.4369    5.9804   23.0433 H   0  0  0  0  0  0  0  0  0  0  0  0
   11.0376    6.9033   22.8217 H   0  0  0  0  0  0  0  0  0  0  0  0
    9.8183    2.3638   24.4166 H   0  0  0  0  0  0  0  0  0  0  0  0
  1  2  1  0
  2  3  1  0
  3  4  1  0
  4  5  1  0
  5  6  1  0
  6  7  4  0
  7  8  4  0
  8  9  4  0
  9 10  1  0
 10 11  1  0
 10 12  2  0
 10 13  2  0
  9 14  4  0
 14 15  4  0
 15  2  1  0
 15  6  4  0
  1 16  1  0
  1 17  1  0
  1 18  1  0
  3 19  1  0
  3 20  1  0
  4 21  1  0
  4 22  1  0
  5 23  1  0
  5 24  1  0
  7 25  1  0
  8 26  1  0
 11 27  1  0
 11 28  1  0
 14 29  1  0
M  END
