LIG
     RDKit          3D

 44 46  0  0  0  0  0  0  0  0999 V2000
   13.9850   -1.7380   20.5810 N   0  0  0  0  0  0  0  0  0  0  0  0
   13.2800   -1.3010   21.3800 C   0  0  0  0  0  0  0  0  0  0  0  0
   12.8510   -0.6710   22.5215 C   0  0  0  0  0  0  0  0  0  0  0  0
   11.2820   -1.3980   22.7460 C   0  0  0  0  0  0  0  0  0  0  0  0
   10.4420   -0.8190   23.6890 C   0  0  0  0  0  0  0  0  0  0  0  0
   10.7560    0.4300   24.2400 C   0  0  0  0  0  0  0  0  0  0  0  0
    9.8330    1.0540   25.2470 C   0  0  0  0  0  0  0  0  0  0  0  0
    8.4500    0.7150   24.9220 N   0  0  0  0  0  0  0  0  0  0  0  0
    7.7030    1.4680   24.0150 C   0  0  0  0  0  0  0  0  0  0  0  0
    8.1720    2.4660   23.4420 O   0  0  0  0  0  0  0  0  0  0  0  0
    6.3360    0.9640   23.8050 N   0  0  0  0  0  0  0  0  0  0  0  0
    5.4800    0.8530   25.0320 C   0  0  0  0  0  0  0  0  0  0  0  0
    4.0500    0.3480   24.7320 C   0  0  0  0  0  0  0  0  0  0  0  0
    3.4750    1.0690   23.6570 O   0  0  0  0  0  0  0  0  0  0  0  0
    4.2210    1.0320   22.4570 C   0  0  0  0  0  0  0  0  0  0  0  0
    5.6140    1.6470   22.6990 C   0  0  0  0  0  0  0  0  0  0  0  0
   11.5655    1.1480   23.8105 C   0  0  0  0  0  0  0  0  0  0  0  0
   10.6670    2.4740   24.0250 C   0  0  0  0  0  0  0  0  0  0  0  0
   11.3350    3.6620   23.6540 C   0  0  0  0  0  0  0  0  0  0  0  0
   10.6680    5.1850   23.9350 S   0  0  0  0  0  6  0  0  0  0  0  0
    9.3520    5.1750   22.9550 N   0  0  0  0  0  0  0  0  0  0  0  0
   11.5530    6.1960   23.4620 O   0  0  0  0  0  0  0  0  0  0  0  0
   10.1890    5.2490   25.2610 O   0  0  0  0  0  0  0  0  0  0  0  0
   12.5830    3.5320   23.0260 C   0  0  0  0  0  0  0  0  0  0  0  0
   13.1480    2.2850   22.7650 C   0  0  0  0  0  0  0  0  0  0  0  0
   12.6120    0.8245   23.0230 C   0  0  0  0  0  0  0  0  0  0  0  0
   11.1253   -2.2007   22.1410 H   0  0  0  0  0  0  0  0  0  0  0  0
    9.5358   -1.3399   23.9865 H   0  0  0  0  0  0  0  0  0  0  0  0
   10.0690    0.7205   26.2582 H   0  0  0  0  0  0  0  0  0  0  0  0
    9.9129    2.1393   25.2520 H   0  0  0  0  0  0  0  0  0  0  0  0
    7.9217    0.2593   25.6448 H   0  0  0  0  0  0  0  0  0  0  0  0
    5.4412    1.8649   25.4544 H   0  0  0  0  0  0  0  0  0  0  0  0
    5.9663    0.1905   25.7569 H   0  0  0  0  0  0  0  0  0  0  0  0
    4.0733   -0.7105   24.4767 H   0  0  0  0  0  0  0  0  0  0  0  0
    3.4248    0.4795   25.6090 H   0  0  0  0  0  0  0  0  0  0  0  0
    4.3210    0.0107   22.1408 H   0  0  0  0  0  0  0  0  0  0  0  0
    3.6938    1.6046   21.7102 H   0  0  0  0  0  0  0  0  0  0  0  0
    6.2438    1.5320   21.8081 H   0  0  0  0  0  0  0  0  0  0  0  0
    5.5210    2.7167   22.9157 H   0  0  0  0  0  0  0  0  0  0  0  0
    9.7498    2.3881   24.3936 H   0  0  0  0  0  0  0  0  0  0  0  0
    8.5098    4.7433   23.3577 H   0  0  0  0  0  0  0  0  0  0  0  0
    8.5457    5.5974   23.4398 H   0  0  0  0  0  0  0  0  0  0  0  0
   13.1399    4.4402   22.7386 H   0  0  0  0  0  0  0  0  0  0  0  0
   14.1810    2.2924   22.2917 H   0  0  0  0  0  0  0  0  0  0  0  0
  1  2  3  0
  2  3  1  0
  3  4  4  0
  4  5  4  0
  5  6  4  0
  6  7  1  0
  7  8  1  0
  8  9  1  0
  9 10  2  0
  9 11  1  0
 11 12  1  0
 12 13  1  0
 13 14  1  0
 14 15  1  0
 15 16  1  0
  6 17  4  0
 17 18  4  0
 18 19  4  0
 19 20  1  0
 20 21  1  0
 20 22  2  0
 20 23  2  0
 19 24  4  0
 24 25  4  0
 25 26  4  0
 26  3  4  0
 16 11  1  0
 26 17  4  0
  4 27  1  0
  5 28  1  0
  7 29  1  0
  7 30  1  0
  8 31  1  0
 12 32  1  0
 12 33  1  0
 13 34  1  0
 13 35  1  0
 15 36  1  0
 15 37  1  0
 16 38  1  0
 16 39  1  0
 18 40  1  0
 21 41  1  0
 21 42  1  0
 24 43  1  0
 25 44  1  0
M  END
