
     RDKit          3D

 46 49  0  0  0  0  0  0  0  0999 V2000
   13.2960   -1.2410   22.0670 C   0  0  0  0  0  0  0  0  0  0  0  0
   12.1290   -0.7530   22.7420 N   0  0  0  0  0  0  0  0  0  0  0  0
   10.9940   -1.6850   22.6030 C   0  0  0  0  0  0  0  0  0  0  0  0
    9.8460   -1.1730   23.2360 C   0  0  0  0  0  0  0  0  0  0  0  0
    9.5260    0.1100   22.8860 N   0  0  0  0  0  0  0  0  0  0  0  0
    8.7440    0.3550   21.6780 C   0  0  0  0  0  0  0  0  0  0  0  0
    8.7770    1.6400   21.0870 O   0  0  0  0  0  0  0  0  0  0  0  0
    7.9480   -0.7640   21.1140 C   0  0  0  0  0  0  0  0  0  0  0  0
    7.1000   -0.3120   20.1390 C   0  0  0  0  0  0  0  0  0  0  0  0
    7.3880   -0.6850   18.7270 C   0  0  0  0  0  0  0  0  0  0  0  0
    6.3400   -0.0280   17.9340 N   0  0  0  0  0  0  0  0  0  0  0  0
    5.4250    0.7180   18.8550 C   0  0  0  0  0  0  0  0  0  0  0  0
    4.3510    1.4340   18.4460 N   0  0  0  0  0  0  0  0  0  0  0  0
    3.6940    1.9990   19.4730 C   0  0  0  0  0  0  0  0  0  0  0  0
    4.1140    1.8570   20.9110 C   0  0  0  0  0  0  0  0  0  0  0  0
    5.2150    1.1200   21.2100 C   0  0  0  0  0  0  0  0  0  0  0  0
    5.9290    0.5090   20.1960 C   0  0  0  0  0  0  0  0  0  0  0  0
   10.5480    1.0240   22.9730 C   0  0  0  0  0  0  0  0  0  0  0  0
   10.1850    2.3790   23.1610 C   0  0  0  0  0  0  0  0  0  0  0  0
   11.1220    3.4380   23.2530 C   0  0  0  0  0  0  0  0  0  0  0  0
   10.6710    5.1410   23.5530 S   0  0  1  0  0  0  0  0  0  0  0  0
    9.2320    5.3310   22.7200 N   0  0  0  0  0  0  0  0  0  0  0  0
   10.3270    5.2520   24.9560 O   0  0  0  0  0  0  0  0  0  0  0  0
   11.6430    6.0140   22.9370 O   0  0  0  0  0  0  0  0  0  0  0  0
   12.5460    2.9450   23.0820 C   0  0  0  0  0  0  0  0  0  0  0  0
   12.8600    1.5990   22.9120 C   0  0  0  0  0  0  0  0  0  0  0  0
   11.8640    0.6270   22.8730 C   0  0  0  0  0  0  0  0  0  0  0  0
   13.8490   -0.3980   21.6780 H   0  0  0  0  0  0  0  0  0  0  0  0
   13.9380   -1.7950   22.7520 H   0  0  0  0  0  0  0  0  0  0  0  0
   13.0090   -1.8890   21.2330 H   0  0  0  0  0  0  0  0  0  0  0  0
   11.2390   -2.6530   23.0570 H   0  0  0  0  0  0  0  0  0  0  0  0
   10.7790   -1.8510   21.5400 H   0  0  0  0  0  0  0  0  0  0  0  0
    9.9980   -1.1970   24.3220 H   0  0  0  0  0  0  0  0  0  0  0  0
    8.9980   -1.8420   23.0490 H   0  0  0  0  0  0  0  0  0  0  0  0
    8.5280   -1.6510   20.8740 H   0  0  0  0  0  0  0  0  0  0  0  0
    7.2880   -1.1090   21.9210 H   0  0  0  0  0  0  0  0  0  0  0  0
    8.1900   -1.2970   18.3390 H   0  0  0  0  0  0  0  0  0  0  0  0
    6.2160   -0.0460   16.9300 H   0  0  0  0  0  0  0  0  0  0  0  0
    2.7980    2.6060   19.2920 H   0  0  0  0  0  0  0  0  0  0  0  0
    3.5420    2.3420   21.7080 H   0  0  0  0  0  0  0  0  0  0  0  0
    5.5540    0.9950   22.2410 H   0  0  0  0  0  0  0  0  0  0  0  0
    9.1060    2.5340   23.2390 H   0  0  0  0  0  0  0  0  0  0  0  0
    9.4160    5.2890   21.7240 H   0  0  0  0  0  0  0  0  0  0  0  0
    8.5500    4.6420   23.0350 H   0  0  0  0  0  0  0  0  0  0  0  0
   13.3110    3.7160   23.1220 H   0  0  0  0  0  0  0  0  0  0  0  0
   13.9270    1.4560   22.8300 H   0  0  0  0  0  0  0  0  0  0  0  0
  1  2  1  0
  2  3  1  0
  3  4  1  0
  4  5  1  0
  5  6  1  0
  6  7  2  0
  6  8  1  0
  8  9  1  0
  9 10  2  0
 10 11  1  0
 11 12  1  0
 12 13  1  0
 13 14  2  0
 14 15  1  0
 15 16  2  0
  9 17  1  0
 12 17  2  0
 16 17  1  0
  5 18  1  0
 18 19  1  0
 19 20  2  0
 20 21  1  0
 21 22  1  6
 21 23  2  0
 21 24  2  0
 20 25  1  0
 25 26  2  0
  2 27  1  0
 18 27  2  0
 26 27  1  0
  1 28  1  0
  1 29  1  0
  1 30  1  0
  3 31  1  0
  3 32  1  0
  4 33  1  0
  4 34  1  0
  8 35  1  0
  8 36  1  0
 10 37  1  0
 11 38  1  0
 14 39  1  0
 15 40  1  0
 16 41  1  0
 19 42  1  0
 22 43  1  0
 22 44  1  0
 25 45  1  0
 26 46  1  0
M  END
