LIG
     RDKit          3D

 29 30  0  0  0  0  0  0  0  0999 V2000
    9.1720    5.7060   22.7835 C   0  0  0  0  0  0  0  0  0  0  0  0
   10.4710    5.5640   23.6590 C   0  0  0  0  0  0  0  0  0  0  0  0
   10.2510    5.6935   24.9035 O   0  0  0  0  0  0  0  0  0  0  0  0
   11.4900    5.8035   23.0690 N   0  0  0  0  0  0  0  0  0  0  0  0
   12.0015    4.3730   23.5020 C   0  0  0  0  0  0  0  0  0  0  0  0
   12.8165    3.5935   22.9915 C   0  0  0  0  0  0  0  0  0  0  0  0
   12.6065    2.4275   23.0940 C   0  0  0  0  0  0  0  0  0  0  0  0
   10.8035    2.6110   24.1180 C   0  0  0  0  0  0  0  0  0  0  0  0
   10.3530    1.5710   24.3790 N   0  0  0  0  0  0  0  0  0  0  0  0
   11.1310    0.8990   23.7485 C   0  0  0  0  0  0  0  0  0  0  0  0
   10.8240   -0.8020   23.6100 C   0  0  0  0  0  0  0  0  0  0  0  0
   11.7080   -1.5810   22.8690 C   0  0  0  0  0  0  0  0  0  0  0  0
   13.0365   -0.8015   22.4645 C   0  0  0  0  0  0  0  0  0  0  0  0
   13.6800   -1.7440   21.5180 F   0  0  0  0  0  0  0  0  0  0  0  0
   13.0300    0.3840   22.3680 C   0  0  0  0  0  0  0  0  0  0  0  0
   12.2930    1.1610   23.1260 C   0  0  0  0  0  0  0  0  0  0  0  0
    8.3600    5.2449   23.3309 H   0  0  0  0  0  0  0  0  0  0  0  0
    8.8125    4.7065   22.5724 H   0  0  0  0  0  0  0  0  0  0  0  0
    9.3168    5.2197   21.8282 H   0  0  0  0  0  0  0  0  0  0  0  0
   11.7711    6.1224   22.3363 H   0  0  0  0  0  0  0  0  0  0  0  0
   10.8985    3.8974   23.7291 H   0  0  0  0  0  0  0  0  0  0  0  0
   12.1999    4.6110   24.6857 H   0  0  0  0  0  0  0  0  0  0  0  0
   13.9164    3.8582   23.3563 H   0  0  0  0  0  0  0  0  0  0  0  0
   13.0131    3.8866   21.8563 H   0  0  0  0  0  0  0  0  0  0  0  0
   10.6144    3.6458   24.2158 H   0  0  0  0  0  0  0  0  0  0  0  0
    9.5629    1.2855   24.9462 H   0  0  0  0  0  0  0  0  0  0  0  0
    9.9590   -1.0965   24.1220 H   0  0  0  0  0  0  0  0  0  0  0  0
   11.6268   -2.5332   22.5638 H   0  0  0  0  0  0  0  0  0  0  0  0
   13.6973    0.9093   21.5738 H   0  0  0  0  0  0  0  0  0  0  0  0
  1  2  1  0
  2  3  2  0
  2  4  1  0
  4  5  1  0
  5  6  1  0
  6  7  1  0
  7  8  4  0
  8  9  4  0
  9 10  4  0
 10 11  4  0
 11 12  4  0
 12 13  4  0
 13 14  1  0
 13 15  4  0
 15 16  4  0
 16  7  4  0
 16 10  4  0
  1 17  1  0
  1 18  1  0
  1 19  1  0
  4 20  1  0
  5 21  1  0
  5 22  1  0
  6 23  1  0
  6 24  1  0
  8 25  1  0
  9 26  1  0
 11 27  1  0
 12 28  1  0
 15 29  1  0
M  END
