LIG
     RDKit          3D

 37 38  0  0  0  0  0  0  0  0999 V2000
    6.4340   -4.9520   26.5780 C   0  0  0  0  0  0  0  0  0  0  0  0
    8.0950   -4.3580   26.1540 S   0  0  0  0  0  6  0  0  0  0  0  0
    8.6390   -3.5100   27.2010 O   0  0  0  0  0  0  0  0  0  0  0  0
    9.0830   -5.4410   26.1700 O   0  0  0  0  0  0  0  0  0  0  0  0
    8.0610   -3.5350   24.6620 N   0  0  0  0  0  0  0  0  0  0  0  0
    9.3140   -3.0270   24.1660 C   0  0  0  0  0  0  0  0  0  0  0  0
    9.2100   -1.7480   23.3470 C   0  0  0  0  0  0  0  0  0  0  0  0
   10.6040   -1.1420   23.3930 C   0  0  0  0  0  0  0  0  0  0  0  0
   11.5830   -1.6930   22.5900 C   0  0  0  0  0  0  0  0  0  0  0  0
   13.0670   -0.9060   22.6520 C   0  0  0  0  0  0  0  0  0  0  0  0
   12.8170    0.4965   23.3005 C   0  0  0  0  0  0  0  0  0  0  0  0
   13.1480    2.2850   22.7650 C   0  0  0  0  0  0  0  0  0  0  0  0
   12.5830    3.5320   23.0260 C   0  0  0  0  0  0  0  0  0  0  0  0
   11.3350    3.6620   23.6540 C   0  0  0  0  0  0  0  0  0  0  0  0
   10.6680    5.1850   23.9350 S   0  0  0  0  0  6  0  0  0  0  0  0
    9.3520    5.1750   22.9550 N   0  0  0  0  0  0  0  0  0  0  0  0
   11.5530    6.1960   23.4620 O   0  0  0  0  0  0  0  0  0  0  0  0
   10.1890    5.2490   25.2610 O   0  0  0  0  0  0  0  0  0  0  0  0
   10.6670    2.4740   24.0250 C   0  0  0  0  0  0  0  0  0  0  0  0
   11.7060    0.8060   24.0235 C   0  0  0  0  0  0  0  0  0  0  0  0
   10.9090   -0.0960   24.2540 C   0  0  0  0  0  0  0  0  0  0  0  0
    6.2424   -4.7034   27.6178 H   0  0  0  0  0  0  0  0  0  0  0  0
    6.4357   -6.0297   26.4354 H   0  0  0  0  0  0  0  0  0  0  0  0
    6.5223   -5.6481   27.4064 H   0  0  0  0  0  0  0  0  0  0  0  0
    7.2568   -2.9020   24.6501 H   0  0  0  0  0  0  0  0  0  0  0  0
    9.8281   -3.8125   23.5457 H   0  0  0  0  0  0  0  0  0  0  0  0
   10.0086   -2.8531   25.0336 H   0  0  0  0  0  0  0  0  0  0  0  0
    8.5076   -1.0684   23.7767 H   0  0  0  0  0  0  0  0  0  0  0  0
    8.9374   -1.9591   22.3367 H   0  0  0  0  0  0  0  0  0  0  0  0
   11.5725   -2.4867   21.9640 H   0  0  0  0  0  0  0  0  0  0  0  0
   13.8274   -1.2949   22.3430 H   0  0  0  0  0  0  0  0  0  0  0  0
   14.0521    2.1766   22.0559 H   0  0  0  0  0  0  0  0  0  0  0  0
   13.1365    4.4389   22.7278 H   0  0  0  0  0  0  0  0  0  0  0  0
    8.9252    6.1077   22.9067 H   0  0  0  0  0  0  0  0  0  0  0  0
    8.5289    5.5465   23.4437 H   0  0  0  0  0  0  0  0  0  0  0  0
    9.7379    2.2387   24.3085 H   0  0  0  0  0  0  0  0  0  0  0  0
   10.3282   -0.1409   25.2482 H   0  0  0  0  0  0  0  0  0  0  0  0
  1  2  1  0
  2  3  2  0
  2  4  2  0
  2  5  1  0
  5  6  1  0
  6  7  1  0
  7  8  1  0
  8  9  4  0
  9 10  4  0
 10 11  4  0
 11 12  4  0
 12 13  4  0
 13 14  4  0
 14 15  1  0
 15 16  1  0
 15 17  2  0
 15 18  2  0
 14 19  4  0
 19 20  4  0
 20 21  4  0
 21  8  4  0
 20 11  4  0
  1 22  1  0
  1 23  1  0
  1 24  1  0
  5 25  1  0
  6 26  1  0
  6 27  1  0
  7 28  1  0
  7 29  1  0
  9 30  1  0
 10 31  1  0
 12 32  1  0
 13 33  1  0
 16 34  1  0
 16 35  1  0
 19 36  1  0
 21 37  1  0
M  END
