LIG
     RDKit          3D

 55 56  0  0  0  0  0  0  0  0999 V2000
    7.6470    4.9230   22.5630 C   0  0  0  0  0  0  0  0  0  0  0  0
    7.2040    3.5440   22.9320 C   0  0  0  0  0  0  0  0  0  0  0  0
    6.2270    3.3360   23.6430 O   0  0  0  0  0  0  0  0  0  0  0  0
    7.9040    2.5380   22.4150 N   0  0  0  0  0  0  0  0  0  0  0  0
    7.7770    1.1690   22.8930 C   0  0  1  0  0  0  0  0  0  0  0  0
    6.4470    0.5230   22.4720 C   0  0  0  0  0  0  0  0  0  0  0  0
    6.0310    0.4105   20.5925 C   0  0  0  0  0  0  0  0  0  0  0  0
    6.8970   -0.2650   20.1240 C   0  0  0  0  0  0  0  0  0  0  0  0
    6.7055   -0.1640   18.9550 C   0  0  0  0  0  0  0  0  0  0  0  0
    5.7140    0.9730   17.9515 C   0  0  0  0  0  0  0  0  0  0  0  0
    6.1160    0.5715   17.4075 O   0  0  0  0  0  0  0  0  0  0  0  0
    4.9245    1.6135   18.8595 C   0  0  0  0  0  0  0  0  0  0  0  0
    5.0815    1.3285   20.1815 C   0  0  0  0  0  0  0  0  0  0  0  0
    3.8370    1.6420   20.9890 C   0  0  0  0  0  0  0  0  0  0  0  0
    4.3320    1.7170   22.4340 C   0  0  0  0  0  0  0  0  0  0  0  0
    3.3230    2.4740   23.1750 N   0  0  0  0  0  0  0  0  0  0  0  0
    2.1860    1.8200   23.8150 C   0  0  0  0  0  0  0  0  0  0  0  0
    2.0580    0.6400   23.7610 O   0  0  0  0  0  0  0  0  0  0  0  0
    1.1280    2.6340   24.5580 C   0  0  0  0  0  0  0  0  0  0  0  0
   -0.1860    2.1670   24.5890 C   0  0  0  0  0  0  0  0  0  0  0  0
   -1.1770    2.8770   25.2530 C   0  0  0  0  0  0  0  0  0  0  0  0
   -0.8610    4.0710   25.8830 C   0  0  0  0  0  0  0  0  0  0  0  0
    0.4450    4.5400   25.8480 C   0  0  0  0  0  0  0  0  0  0  0  0
    1.4450    3.8310   25.1930 C   0  0  0  0  0  0  0  0  0  0  0  0
    2.7270    4.3200   25.1830 F   0  0  0  0  0  0  0  0  0  0  0  0
    8.9700    0.4030   22.3370 C   0  0  0  0  0  0  0  0  0  0  0  0
    9.8170    0.9750   21.6560 O   0  0  0  0  0  0  0  0  0  0  0  0
    9.0130   -0.8970   22.6070 N   0  0  0  0  0  0  0  0  0  0  0  0
    9.9110   -1.7790   21.8910 C   0  0  0  0  0  0  0  0  0  0  0  0
   11.2900   -1.5690   22.3350 C   0  0  0  0  0  0  0  0  0  0  0  0
   12.4300   -1.6070   22.7390 C   0  0  0  0  0  0  0  0  0  0  0  0
   14.1250   -1.9140   23.6280 Br  0  0  0  0  0  0  0  0  0  0  0  0
    7.1950    5.6848   23.2084 H   0  0  0  0  0  0  0  0  0  0  0  0
    8.7356    4.9936   22.6647 H   0  0  0  0  0  0  0  0  0  0  0  0
    8.1478    5.3845   23.4202 H   0  0  0  0  0  0  0  0  0  0  0  0
    8.8665    2.7755   22.1071 H   0  0  0  0  0  0  0  0  0  0  0  0
    7.8609    1.1817   24.0017 H   0  0  0  0  0  0  0  0  0  0  0  0
    5.5445    1.0515   22.7879 H   0  0  0  0  0  0  0  0  0  0  0  0
    6.3167   -0.5052   22.7769 H   0  0  0  0  0  0  0  0  0  0  0  0
    7.6510   -0.8239   20.5938 H   0  0  0  0  0  0  0  0  0  0  0  0
    7.1646   -0.8493   18.1044 H   0  0  0  0  0  0  0  0  0  0  0  0
    6.7193    1.0591   16.6312 H   0  0  0  0  0  0  0  0  0  0  0  0
    4.1800    2.3313   18.5269 H   0  0  0  0  0  0  0  0  0  0  0  0
    3.1385    0.8531   20.8946 H   0  0  0  0  0  0  0  0  0  0  0  0
    3.4117    2.5553   20.6810 H   0  0  0  0  0  0  0  0  0  0  0  0
    5.2632    2.2335   22.4787 H   0  0  0  0  0  0  0  0  0  0  0  0
    4.3934    0.7559   22.8837 H   0  0  0  0  0  0  0  0  0  0  0  0
    3.5666    3.3822   23.5240 H   0  0  0  0  0  0  0  0  0  0  0  0
   -0.4463    1.2299   24.0859 H   0  0  0  0  0  0  0  0  0  0  0  0
   -2.1965    2.4964   25.2788 H   0  0  0  0  0  0  0  0  0  0  0  0
   -1.6317    4.6382   26.4030 H   0  0  0  0  0  0  0  0  0  0  0  0
    0.7018    5.4835   26.3460 H   0  0  0  0  0  0  0  0  0  0  0  0
    8.7578   -1.2079   23.5539 H   0  0  0  0  0  0  0  0  0  0  0  0
    9.8061   -1.5655   20.8206 H   0  0  0  0  0  0  0  0  0  0  0  0
    9.5999   -2.8175   22.0574 H   0  0  0  0  0  0  0  0  0  0  0  0
  1  2  1  0
  2  3  2  0
  2  4  1  0
  4  5  1  0
  5  6  1  0
  6  7  1  0
  7  8  4  0
  8  9  4  0
  9 10  4  0
 10 11  1  0
 10 12  4  0
 12 13  4  0
 13 14  1  0
 14 15  1  0
 15 16  1  0
 16 17  1  0
 17 18  2  0
 17 19  1  0
 19 20  4  0
 20 21  4  0
 21 22  4  0
 22 23  4  0
 23 24  4  0
 24 25  1  0
  5 26  1  0
 26 27  2  0
 26 28  1  0
 28 29  1  0
 29 30  1  0
 30 31  3  0
 31 32  1  0
 13  7  4  0
 24 19  4  0
  1 33  1  0
  1 34  1  0
  1 35  1  0
  4 36  1  0
  5 37  1  1
  6 38  1  0
  6 39  1  0
  8 40  1  0
  9 41  1  0
 11 42  1  0
 12 43  1  0
 14 44  1  0
 14 45  1  0
 15 46  1  0
 15 47  1  0
 16 48  1  0
 20 49  1  0
 21 50  1  0
 22 51  1  0
 23 52  1  0
 28 53  1  0
 29 54  1  0
 29 55  1  0
M  END
