
     RDKit          3D

 49 51  0  0  0  0  0  0  0  0999 V2000
    7.5990    5.1160   22.3060 C   0  0  0  0  0  0  0  0  0  0  0  0
    7.1620    3.8260   22.9400 C   0  0  0  0  0  0  0  0  0  0  0  0
    6.1960    3.7560   23.6920 O   0  0  0  0  0  0  0  0  0  0  0  0
    7.9380    2.7470   22.6110 N   0  0  0  0  0  0  0  0  0  0  0  0
    7.5210    1.4240   23.0240 C   0  0  1  0  0  0  0  0  0  0  0  0
    6.0280    1.2110   22.6990 C   0  0  0  0  0  0  0  0  0  0  0  0
    5.7070    1.2420   21.2350 C   0  0  0  0  0  0  0  0  0  0  0  0
    4.8720    2.2020   20.6460 C   0  0  0  0  0  0  0  0  0  0  0  0
    4.9410    1.6770   19.1340 C   0  0  0  0  0  0  0  0  0  0  0  0
    5.5040    0.6560   18.2360 C   0  0  0  0  0  0  0  0  0  0  0  0
    6.0760   -0.2740   17.7070 O   0  0  0  0  0  0  0  0  0  0  0  0
    6.2700   -0.0640   19.2910 C   0  0  0  0  0  0  0  0  0  0  0  0
    6.3380    0.2360   20.6720 C   0  0  0  0  0  0  0  0  0  0  0  0
    7.1530   -1.2900   19.1400 C   0  0  0  0  0  0  0  0  0  0  0  0
    7.1780   -2.0460   20.4000 N   0  0  0  0  0  0  0  0  0  0  0  0
    6.6350   -2.9730   21.1410 C   0  0  0  0  0  0  0  0  0  0  0  0
    5.6860   -3.6200   20.6820 O   0  0  0  0  0  0  0  0  0  0  0  0
    7.0940   -3.2720   22.4460 N   0  0  0  0  0  0  0  0  0  0  0  0
    6.8990   -4.6200   23.0070 C   0  0  1  0  0  0  0  0  0  0  0  0
    5.7580   -5.2350   23.1190 C   0  0  0  0  0  0  0  0  0  0  0  0
    6.2760   -5.8460   22.0850 C   0  0  0  0  0  0  0  0  0  0  0  0
    8.4340   -1.5480   21.2080 C   0  0  2  0  0  0  0  0  0  0  0  0
    9.5050   -2.3590   21.7340 C   0  0  0  0  0  0  0  0  0  0  0  0
   10.8040   -1.9710   22.2240 C   0  0  0  0  0  0  0  0  0  0  0  0
   12.5670   -1.6000   22.9200 Br  0  0  0  0  0  0  0  0  0  0  0  0
    8.0590   -0.8270   22.0470 N   0  0  0  0  0  0  0  0  0  0  0  0
    8.4890    0.4520   22.2570 C   0  0  0  0  0  0  0  0  0  0  0  0
    9.5900    0.8690   21.8880 O   0  0  0  0  0  0  0  0  0  0  0  0
    8.6880    5.1890   22.2480 H   0  0  0  0  0  0  0  0  0  0  0  0
    7.2340    5.9510   22.9080 H   0  0  0  0  0  0  0  0  0  0  0  0
    7.1840    5.1820   21.2980 H   0  0  0  0  0  0  0  0  0  0  0  0
    8.9160    2.8950   22.4040 H   0  0  0  0  0  0  0  0  0  0  0  0
    7.6490    1.3850   24.1110 H   0  0  0  0  0  0  0  0  0  0  0  0
    5.6810    0.2690   23.1390 H   0  0  0  0  0  0  0  0  0  0  0  0
    5.4470    1.9900   23.2070 H   0  0  0  0  0  0  0  0  0  0  0  0
    5.0550    2.2590   21.7220 H   0  0  0  0  0  0  0  0  0  0  0  0
    4.3210    2.3450   18.5210 H   0  0  0  0  0  0  0  0  0  0  0  0
    5.5530   -1.0290   17.2460 H   0  0  0  0  0  0  0  0  0  0  0  0
    6.9610   -0.4410   21.2450 H   0  0  0  0  0  0  0  0  0  0  0  0
    8.1640   -1.0390   18.8710 H   0  0  0  0  0  0  0  0  0  0  0  0
    6.8040   -1.9800   18.3690 H   0  0  0  0  0  0  0  0  0  0  0  0
    7.9920   -2.8430   22.6710 H   0  0  0  0  0  0  0  0  0  0  0  0
    7.7130   -4.9010   23.6730 H   0  0  0  0  0  0  0  0  0  0  0  0
    4.8610   -4.7150   22.7950 H   0  0  0  0  0  0  0  0  0  0  0  0
    5.6210   -5.6880   24.1040 H   0  0  0  0  0  0  0  0  0  0  0  0
    6.7940   -6.7910   22.0130 H   0  0  0  0  0  0  0  0  0  0  0  0
    5.7640   -5.6260   21.1390 H   0  0  0  0  0  0  0  0  0  0  0  0
    8.9330   -0.9340   20.4810 H   0  0  0  0  0  0  0  0  0  0  0  0
    7.2110   -1.1240   22.4850 H   0  0  0  0  0  0  0  0  0  0  0  0
  1  2  1  0
  2  3  2  0
  2  4  1  0
  4  5  1  0
  5  6  1  0
  6  7  1  0
  7  8  1  0
  8  9  2  0
  9 10  1  0
 10 11  1  0
 10 12  2  0
  7 13  2  0
 12 13  1  0
 12 14  1  0
 14 15  1  0
 15 16  1  0
 16 17  2  0
 16 18  1  0
 18 19  1  0
 19 20  1  0
 19 21  1  0
 20 21  1  0
 15 22  1  0
 22 23  1  0
 23 24  3  0
 24 25  1  0
 22 26  1  0
  5 27  1  0
 26 27  1  0
 27 28  2  0
  1 29  1  0
  1 30  1  0
  1 31  1  0
  4 32  1  0
  5 33  1  1
  6 34  1  0
  6 35  1  0
  8 36  1  0
  9 37  1  0
 11 38  1  0
 13 39  1  0
 14 40  1  0
 14 41  1  0
 18 42  1  0
 19 43  1  1
 20 44  1  0
 20 45  1  0
 21 46  1  0
 21 47  1  0
 22 48  1  6
 26 49  1  0
M  END
