
     RDKit          3D

 55 56  0  0  0  0  0  0  0  0999 V2000
    7.4950    4.9330   22.3260 C   0  0  0  0  0  0  0  0  0  0  0  0
    7.1870    3.6210   22.9880 C   0  0  0  0  0  0  0  0  0  0  0  0
    6.3620    3.5280   23.8870 O   0  0  0  0  0  0  0  0  0  0  0  0
    7.9100    2.5560   22.4980 N   0  0  0  0  0  0  0  0  0  0  0  0
    7.7150    1.2160   23.0300 C   0  0  1  0  0  0  0  0  0  0  0  0
    6.3670    0.5960   22.6280 C   0  0  0  0  0  0  0  0  0  0  0  0
    6.1550    0.5880   21.1470 C   0  0  0  0  0  0  0  0  0  0  0  0
    7.0160   -0.1440   20.3360 C   0  0  0  0  0  0  0  0  0  0  0  0
    6.8400   -0.1760   18.8470 C   0  0  0  0  0  0  0  0  0  0  0  0
    5.7990    0.5420   18.2700 C   0  0  0  0  0  0  0  0  0  0  0  0
    5.6740    0.5110   17.0890 O   0  0  0  0  0  0  0  0  0  0  0  0
    4.8660    1.3250   19.1010 C   0  0  0  0  0  0  0  0  0  0  0  0
    5.0540    1.3440   20.6010 C   0  0  0  0  0  0  0  0  0  0  0  0
    4.1360    2.1010   21.3100 C   0  0  0  0  0  0  0  0  0  0  0  0
    4.0020    1.8190   22.6590 C   0  0  0  0  0  0  0  0  0  0  0  0
    3.0150    2.5020   23.2720 N   0  0  0  0  0  0  0  0  0  0  0  0
    2.0390    1.7370   23.9000 C   0  0  0  0  0  0  0  0  0  0  0  0
    2.0200    0.5120   23.9040 O   0  0  0  0  0  0  0  0  0  0  0  0
    1.0650    2.4960   24.5410 C   0  0  0  0  0  0  0  0  0  0  0  0
   -0.2690    2.0420   24.5680 C   0  0  0  0  0  0  0  0  0  0  0  0
   -1.2620    2.9370   25.2930 C   0  0  0  0  0  0  0  0  0  0  0  0
   -0.9100    4.1290   25.8990 C   0  0  0  0  0  0  0  0  0  0  0  0
    0.4010    4.5990   25.8860 C   0  0  0  0  0  0  0  0  0  0  0  0
    1.4150    3.8560   25.2440 C   0  0  0  0  0  0  0  0  0  0  0  0
    2.6650    4.3490   25.2560 F   0  0  0  0  0  0  0  0  0  0  0  0
    8.9270    0.3830   22.5840 C   0  0  0  0  0  0  0  0  0  0  0  0
    9.8380    0.8710   21.9350 O   0  0  0  0  0  0  0  0  0  0  0  0
    8.9110   -0.9380   22.9770 N   0  0  0  0  0  0  0  0  0  0  0  0
    9.6460   -1.9210   22.2200 C   0  0  0  0  0  0  0  0  0  0  0  0
   11.0640   -1.5270   21.9710 C   0  0  0  0  0  0  0  0  0  0  0  0
   12.0650   -1.8380   22.9980 C   0  0  0  0  0  0  0  0  0  0  0  0
   13.3020   -2.2650   24.3700 Br  0  0  0  0  0  0  0  0  0  0  0  0
    6.6150    5.5830   22.2800 H   0  0  0  0  0  0  0  0  0  0  0  0
    7.8260    4.7400   21.3090 H   0  0  0  0  0  0  0  0  0  0  0  0
    8.2880    5.4410   22.8820 H   0  0  0  0  0  0  0  0  0  0  0  0
    8.7880    2.7490   22.0370 H   0  0  0  0  0  0  0  0  0  0  0  0
    7.7780    1.2830   24.1210 H   0  0  0  0  0  0  0  0  0  0  0  0
    5.5520    1.1070   23.1420 H   0  0  0  0  0  0  0  0  0  0  0  0
    6.3350   -0.4380   22.9930 H   0  0  0  0  0  0  0  0  0  0  0  0
    7.8350   -0.7060   20.7970 H   0  0  0  0  0  0  0  0  0  0  0  0
    7.5290   -0.7610   18.2290 H   0  0  0  0  0  0  0  0  0  0  0  0
    6.4160    0.1530   16.5090 H   0  0  0  0  0  0  0  0  0  0  0  0
    4.0470    1.8860   18.6300 H   0  0  0  0  0  0  0  0  0  0  0  0
    3.1690    1.8850   20.8460 H   0  0  0  0  0  0  0  0  0  0  0  0
    4.2860    3.1510   21.0580 H   0  0  0  0  0  0  0  0  0  0  0  0
    4.9160    1.9740   23.2270 H   0  0  0  0  0  0  0  0  0  0  0  0
    3.9010    0.7330   22.6870 H   0  0  0  0  0  0  0  0  0  0  0  0
    2.7680    3.4120   22.8950 H   0  0  0  0  0  0  0  0  0  0  0  0
   -0.4810    1.0880   24.0720 H   0  0  0  0  0  0  0  0  0  0  0  0
   -2.2830    2.5660   25.3030 H   0  0  0  0  0  0  0  0  0  0  0  0
   -1.7800    4.5920   26.3510 H   0  0  0  0  0  0  0  0  0  0  0  0
    0.5110    5.5730   26.4170 H   0  0  0  0  0  0  0  0  0  0  0  0
    8.7170   -1.1470   23.9630 H   0  0  0  0  0  0  0  0  0  0  0  0
    9.4590   -1.7740   21.1410 H   0  0  0  0  0  0  0  0  0  0  0  0
    9.3610   -2.9370   22.4810 H   0  0  0  0  0  0  0  0  0  0  0  0
  1  2  1  0
  2  3  2  0
  2  4  1  0
  4  5  1  0
  5  6  1  0
  6  7  1  0
  7  8  2  0
  8  9  1  0
  9 10  2  0
 10 11  1  0
 10 12  1  0
  7 13  1  0
 12 13  2  0
 13 14  1  0
 14 15  1  0
 15 16  1  0
 16 17  1  0
 17 18  2  0
 17 19  1  0
 19 20  2  0
 20 21  1  0
 21 22  2  0
 22 23  1  0
 19 24  1  0
 23 24  2  0
 24 25  1  0
  5 26  1  0
 26 27  2  0
 26 28  1  0
 28 29  1  0
 29 30  1  0
 30 31  3  0
 31 32  1  0
  1 33  1  0
  1 34  1  0
  1 35  1  0
  4 36  1  0
  5 37  1  1
  6 38  1  0
  6 39  1  0
  8 40  1  0
  9 41  1  0
 11 42  1  0
 12 43  1  0
 14 44  1  0
 14 45  1  0
 15 46  1  0
 15 47  1  0
 16 48  1  0
 20 49  1  0
 21 50  1  0
 22 51  1  0
 23 52  1  0
 28 53  1  0
 29 54  1  0
 29 55  1  0
M  END
