LIG
     RDKit          3D

 57 58  0  0  0  0  0  0  0  0999 V2000
    7.6470    4.9230   22.5630 C   0  0  0  0  0  0  0  0  0  0  0  0
    7.2040    3.5440   22.9320 C   0  0  0  0  0  0  0  0  0  0  0  0
    6.2270    3.3360   23.6430 O   0  0  0  0  0  0  0  0  0  0  0  0
    7.9040    2.5380   22.4150 N   0  0  0  0  0  0  0  0  0  0  0  0
    7.7770    1.1690   22.8930 C   0  0  2  0  0  0  0  0  0  0  0  0
    8.9700    0.4030   22.3370 C   0  0  0  0  0  0  0  0  0  0  0  0
    9.8170    0.9750   21.6560 O   0  0  0  0  0  0  0  0  0  0  0  0
    9.0130   -0.8970   22.6070 N   0  0  0  0  0  0  0  0  0  0  0  0
    9.9110   -1.7790   21.8910 C   0  0  0  0  0  0  0  0  0  0  0  0
   11.2900   -1.5690   22.3350 C   0  0  0  0  0  0  0  0  0  0  0  0
   12.4300   -1.6070   22.7390 C   0  0  0  0  0  0  0  0  0  0  0  0
   14.1250   -1.9140   23.6280 Br  0  0  0  0  0  0  0  0  0  0  0  0
    5.8260    1.0385   22.5105 C   0  0  0  0  0  0  0  0  0  0  0  0
    4.0700    2.4460   22.4650 N   0  0  0  0  0  0  0  0  0  0  0  0
    2.9270    2.3110   23.3520 C   0  0  0  0  0  0  0  0  0  0  0  0
    2.8920    1.4710   24.2020 O   0  0  0  0  0  0  0  0  0  0  0  0
    1.8460    3.2530   23.1370 N   0  0  0  0  0  0  0  0  0  0  0  0
    0.6480    3.2940   23.9490 C   0  0  0  0  0  0  0  0  0  0  0  0
    0.5370    4.7360   24.4510 C   0  0  0  0  0  0  0  0  0  0  0  0
   -0.7860    4.9880   25.1580 C   0  0  0  0  0  0  0  0  0  0  0  0
   -1.9540    4.6680   24.2350 C   0  0  0  0  0  0  0  0  0  0  0  0
   -1.8960    3.2340   23.7250 C   0  0  0  0  0  0  0  0  0  0  0  0
   -0.5430    2.8790   23.0980 C   0  0  0  0  0  0  0  0  0  0  0  0
    5.5460    0.4465   21.3510 C   0  0  0  0  0  0  0  0  0  0  0  0
    6.6380   -0.3040   19.9610 C   0  0  0  0  0  0  0  0  0  0  0  0
    6.7375   -0.2190   18.6120 C   0  0  0  0  0  0  0  0  0  0  0  0
    5.9735    0.6395   17.9375 C   0  0  0  0  0  0  0  0  0  0  0  0
    5.3800    1.0380   17.4685 O   0  0  0  0  0  0  0  0  0  0  0  0
    4.8810    1.4200   19.2165 C   0  0  0  0  0  0  0  0  0  0  0  0
    5.3165    0.9590   20.3420 C   0  0  0  0  0  0  0  0  0  0  0  0
    8.6458    5.1078   22.9727 H   0  0  0  0  0  0  0  0  0  0  0  0
    7.8311    5.5055   23.4721 H   0  0  0  0  0  0  0  0  0  0  0  0
    6.9698    5.6798   22.9740 H   0  0  0  0  0  0  0  0  0  0  0  0
    8.6266    2.7125   21.7171 H   0  0  0  0  0  0  0  0  0  0  0  0
    7.7959    1.2656   23.9700 H   0  0  0  0  0  0  0  0  0  0  0  0
    8.8553   -1.1660   23.5971 H   0  0  0  0  0  0  0  0  0  0  0  0
    9.8086   -1.5672   20.8214 H   0  0  0  0  0  0  0  0  0  0  0  0
    9.5961   -2.8138   22.0596 H   0  0  0  0  0  0  0  0  0  0  0  0
    6.1988    2.2153   21.2946 H   0  0  0  0  0  0  0  0  0  0  0  0
    4.5577    3.2103   22.2254 H   0  0  0  0  0  0  0  0  0  0  0  0
    1.9778    3.8959   22.3759 H   0  0  0  0  0  0  0  0  0  0  0  0
    0.5498    4.4113   22.5097 H   0  0  0  0  0  0  0  0  0  0  0  0
    1.3627    4.9663   25.1266 H   0  0  0  0  0  0  0  0  0  0  0  0
    0.6156    5.4134   23.5976 H   0  0  0  0  0  0  0  0  0  0  0  0
   -0.8538    4.3756   26.0594 H   0  0  0  0  0  0  0  0  0  0  0  0
   -0.8429    6.0319   25.4724 H   0  0  0  0  0  0  0  0  0  0  0  0
   -1.9439    5.3585   23.3825 H   0  0  0  0  0  0  0  0  0  0  0  0
   -2.8991    4.8345   24.7647 H   0  0  0  0  0  0  0  0  0  0  0  0
   -2.1130    2.5385   24.5513 H   0  0  0  0  0  0  0  0  0  0  0  0
   -2.6909    3.0780   22.9813 H   0  0  0  0  0  0  0  0  0  0  0  0
   -0.5202    1.7972   22.8888 H   0  0  0  0  0  0  0  0  0  0  0  0
   -0.4743    3.3786   22.1173 H   0  0  0  0  0  0  0  0  0  0  0  0
    7.3617   -0.9837   20.5859 H   0  0  0  0  0  0  0  0  0  0  0  0
    7.4634   -0.8751   18.0947 H   0  0  0  0  0  0  0  0  0  0  0  0
    4.8402    0.5227   16.6897 H   0  0  0  0  0  0  0  0  0  0  0  0
    4.2438    1.9842   18.7907 H   0  0  0  0  0  0  0  0  0  0  0  0
    6.5594    1.7711   20.2629 H   0  0  0  0  0  0  0  0  0  0  0  0
  1  2  1  0
  2  3  2  0
  2  4  1  0
  4  5  1  0
  5  6  1  0
  6  7  2  0
  6  8  1  0
  8  9  1  0
  9 10  1  0
 10 11  3  0
 11 12  1  0
  5 13  1  0
 13 14  1  0
 14 15  1  0
 15 16  2  0
 15 17  1  0
 17 18  1  0
 18 19  1  0
 19 20  1  0
 20 21  1  0
 21 22  1  0
 22 23  1  0
 13 24  1  0
 24 25  4  0
 25 26  4  0
 26 27  4  0
 27 28  1  0
 27 29  4  0
 29 30  4  0
 23 18  1  0
 30 24  4  0
  1 31  1  0
  1 32  1  0
  1 33  1  0
  4 34  1  0
  5 35  1  1
  8 36  1  0
  9 37  1  0
  9 38  1  0
 13 39  1  0
 14 40  1  0
 17 41  1  0
 18 42  1  0
 19 43  1  0
 19 44  1  0
 20 45  1  0
 20 46  1  0
 21 47  1  0
 21 48  1  0
 22 49  1  0
 22 50  1  0
 23 51  1  0
 23 52  1  0
 25 53  1  0
 26 54  1  0
 28 55  1  0
 29 56  1  0
 30 57  1  0
M  END
