
     RDKit          3D

 57 60  0  0  0  0  0  0  0  0999 V2000
    7.3460    4.6590   22.2360 C   0  0  0  0  0  0  0  0  0  0  0  0
    7.1170    3.3880   23.0150 C   0  0  0  0  0  0  0  0  0  0  0  0
    6.1530    3.2480   23.7580 O   0  0  0  0  0  0  0  0  0  0  0  0
    8.0890    2.4330   22.8120 N   0  0  0  0  0  0  0  0  0  0  0  0
    7.9250    1.0140   23.1540 C   0  0  1  0  0  0  0  0  0  0  0  0
    6.5550    0.4860   22.6660 C   0  0  0  0  0  0  0  0  0  0  0  0
    6.3470    0.5740   21.1870 C   0  0  0  0  0  0  0  0  0  0  0  0
    7.0180   -0.2680   20.3100 C   0  0  0  0  0  0  0  0  0  0  0  0
    6.8000   -0.1770   18.8190 C   0  0  0  0  0  0  0  0  0  0  0  0
    5.9110    0.7700   18.3070 C   0  0  0  0  0  0  0  0  0  0  0  0
    5.7570    0.8320   17.1120 O   0  0  0  0  0  0  0  0  0  0  0  0
    5.1820    1.6780   19.2310 C   0  0  0  0  0  0  0  0  0  0  0  0
    5.4220    1.5600   20.7310 C   0  0  0  0  0  0  0  0  0  0  0  0
    9.1780    0.3530   22.5900 C   0  0  0  0  0  0  0  0  0  0  0  0
    9.8900    1.2570   21.7840 O   0  0  0  0  0  0  0  0  0  0  0  0
    9.6340   -1.0250   22.8640 N   0  0  1  0  0  0  0  0  0  0  0  0
    8.5980   -1.9680   23.3260 N   0  0  0  0  0  0  0  0  0  0  0  0
    7.5430   -1.5700   24.1430 C   0  0  0  0  0  0  0  0  0  0  0  0
    6.5770   -2.5570   24.2720 C   0  0  0  0  0  0  0  0  0  0  0  0
    7.1950   -3.6030   24.7890 C   0  0  1  0  0  0  0  0  0  0  0  0
    6.3450   -4.5360   25.4810 O   0  0  0  0  0  0  0  0  0  0  0  0
    7.9930   -4.2620   23.8320 C   0  0  0  0  0  0  0  0  0  0  0  0
    9.1290   -3.3100   23.5660 C   0  0  0  0  0  0  0  0  0  0  0  0
   10.6400   -1.7830   22.0880 C   0  0  0  0  0  0  0  0  0  0  0  0
   11.3180   -0.6780   22.3920 C   0  0  2  0  0  0  0  0  0  0  0  0
   11.1200   -0.0870   23.4660 C   0  0  0  0  0  0  0  0  0  0  0  0
   12.5910    0.9160   23.0650 Br  0  0  0  0  0  0  0  0  0  0  0  0
    9.9140   -1.1350   23.1170 C   0  0  0  0  0  0  0  0  0  0  0  0
    9.4310   -1.4820   24.4380 C   0  0  0  0  0  0  0  0  0  0  0  0
   10.7280   -1.2420   23.8630 C   0  0  0  0  0  0  0  0  0  0  0  0
    7.7660    5.4510   22.8600 H   0  0  0  0  0  0  0  0  0  0  0  0
    6.3930    5.0090   21.8290 H   0  0  0  0  0  0  0  0  0  0  0  0
    8.0350    4.4460   21.4200 H   0  0  0  0  0  0  0  0  0  0  0  0
    9.0230    2.7450   22.5760 H   0  0  0  0  0  0  0  0  0  0  0  0
    7.9860    0.9310   24.2480 H   0  0  0  0  0  0  0  0  0  0  0  0
    6.3950   -0.5390   23.0050 H   0  0  0  0  0  0  0  0  0  0  0  0
    5.7690    1.0720   23.1630 H   0  0  0  0  0  0  0  0  0  0  0  0
    7.7180   -1.0100   20.7130 H   0  0  0  0  0  0  0  0  0  0  0  0
    7.3410   -0.8520   18.1530 H   0  0  0  0  0  0  0  0  0  0  0  0
    6.3740    0.3040   16.5040 H   0  0  0  0  0  0  0  0  0  0  0  0
    4.4790    2.4250   18.8300 H   0  0  0  0  0  0  0  0  0  0  0  0
    4.9040    2.2110   21.4350 H   0  0  0  0  0  0  0  0  0  0  0  0
    7.1750   -0.6340   23.7490 H   0  0  0  0  0  0  0  0  0  0  0  0
    7.9900   -1.2720   25.0830 H   0  0  0  0  0  0  0  0  0  0  0  0
    6.0300   -2.7630   23.3540 H   0  0  0  0  0  0  0  0  0  0  0  0
    5.7820   -2.3200   24.9780 H   0  0  0  0  0  0  0  0  0  0  0  0
    7.6750   -3.0960   25.6030 H   0  0  0  0  0  0  0  0  0  0  0  0
    5.7000   -4.0190   25.9990 H   0  0  0  0  0  0  0  0  0  0  0  0
    8.3190   -5.2550   24.1450 H   0  0  0  0  0  0  0  0  0  0  0  0
    7.4290   -4.3990   22.9040 H   0  0  0  0  0  0  0  0  0  0  0  0
    9.6520   -3.5990   22.6780 H   0  0  0  0  0  0  0  0  0  0  0  0
    9.8470   -3.2950   24.3860 H   0  0  0  0  0  0  0  0  0  0  0  0
   11.0820   -2.6610   22.5840 H   0  0  0  0  0  0  0  0  0  0  0  0
   10.3400   -2.0670   21.1070 H   0  0  0  0  0  0  0  0  0  0  0  0
   12.3950   -0.6890   22.2500 H   0  0  0  0  0  0  0  0  0  0  0  0
    9.6900   -1.6400   22.1750 H   0  0  0  0  0  0  0  0  0  0  0  0
    8.6900   -1.7430   25.1690 H   0  0  0  0  0  0  0  0  0  0  0  0
  1  2  1  0
  2  3  2  0
  2  4  1  0
  4  5  1  0
  5  6  1  0
  6  7  1  0
  7  8  2  0
  8  9  1  0
  9 10  2  0
 10 11  1  0
 10 12  1  0
  7 13  1  0
 12 13  2  0
  5 14  1  0
 14 15  2  0
 16 14  1  6
 16 17  1  0
 17 18  1  0
 18 19  1  0
 19 20  1  0
 20 21  1  0
 20 22  1  0
 17 23  1  0
 22 23  1  0
 16 24  1  0
 24 25  1  0
 25 26  1  0
 26 27  1  0
 26 28  2  0
 28 29  1  0
 16 30  1  0
 25 30  1  0
 29 30  2  0
  1 31  1  0
  1 32  1  0
  1 33  1  0
  4 34  1  0
  5 35  1  1
  6 36  1  0
  6 37  1  0
  8 38  1  0
  9 39  1  0
 11 40  1  0
 12 41  1  0
 13 42  1  0
 18 43  1  0
 18 44  1  0
 19 45  1  0
 19 46  1  0
 20 47  1  1
 21 48  1  0
 22 49  1  0
 22 50  1  0
 23 51  1  0
 23 52  1  0
 24 53  1  0
 24 54  1  0
 25 55  1  1
 28 56  1  0
 29 57  1  0
M  CHG  1  16   1
M  END
