LIG
     RDKit          3D

 37 37  0  0  0  0  0  0  0  0999 V2000
    7.6470    4.9230   22.5630 C   0  0  0  0  0  0  0  0  0  0  0  0
    7.2040    3.5440   22.9320 C   0  0  0  0  0  0  0  0  0  0  0  0
    6.2270    3.3360   23.6430 O   0  0  0  0  0  0  0  0  0  0  0  0
    7.9040    2.5380   22.4150 N   0  0  0  0  0  0  0  0  0  0  0  0
    7.7770    1.1690   22.8930 C   0  0  1  0  0  0  0  0  0  0  0  0
    6.4470    0.5230   22.4720 C   0  0  0  0  0  0  0  0  0  0  0  0
    6.2110    0.5770   20.9840 C   0  0  0  0  0  0  0  0  0  0  0  0
    6.4730   -0.4685   19.8280 C   0  0  0  0  0  0  0  0  0  0  0  0
    6.6390   -0.3275   18.5155 C   0  0  0  0  0  0  0  0  0  0  0  0
    5.5575    1.0560   18.0450 C   0  0  0  0  0  0  0  0  0  0  0  0
    5.9515    0.6580   17.1595 O   0  0  0  0  0  0  0  0  0  0  0  0
    4.9030    1.4235   19.1015 C   0  0  0  0  0  0  0  0  0  0  0  0
    3.7110    2.1190   19.5450 N   0  0  0  0  0  0  0  0  0  0  0  0
    5.2240    0.8475   20.1895 C   0  0  0  0  0  0  0  0  0  0  0  0
    8.9700    0.4030   22.3370 C   0  0  0  0  0  0  0  0  0  0  0  0
    9.8170    0.9750   21.6560 O   0  0  0  0  0  0  0  0  0  0  0  0
    9.0130   -0.8970   22.6070 N   0  0  0  0  0  0  0  0  0  0  0  0
    9.9110   -1.7790   21.8910 C   0  0  0  0  0  0  0  0  0  0  0  0
   11.2900   -1.5690   22.3350 C   0  0  0  0  0  0  0  0  0  0  0  0
   12.4300   -1.6070   22.7390 C   0  0  0  0  0  0  0  0  0  0  0  0
   14.1250   -1.9140   23.6280 Br  0  0  0  0  0  0  0  0  0  0  0  0
    7.7831    5.5552   23.4472 H   0  0  0  0  0  0  0  0  0  0  0  0
    8.6057    4.8674   22.0368 H   0  0  0  0  0  0  0  0  0  0  0  0
    8.6118    5.1329   23.0355 H   0  0  0  0  0  0  0  0  0  0  0  0
    8.8533    2.7720   22.0616 H   0  0  0  0  0  0  0  0  0  0  0  0
    7.8504    1.1915   24.0027 H   0  0  0  0  0  0  0  0  0  0  0  0
    5.6099    1.0249   22.9727 H   0  0  0  0  0  0  0  0  0  0  0  0
    6.4133   -0.5184   22.8158 H   0  0  0  0  0  0  0  0  0  0  0  0
    6.5313   -1.5381   20.2751 H   0  0  0  0  0  0  0  0  0  0  0  0
    7.1073   -0.6751   17.7680 H   0  0  0  0  0  0  0  0  0  0  0  0
    6.9791    0.6903   17.1445 H   0  0  0  0  0  0  0  0  0  0  0  0
    2.9960    1.9992   18.8326 H   0  0  0  0  0  0  0  0  0  0  0  0
    2.8847    1.6649   19.1764 H   0  0  0  0  0  0  0  0  0  0  0  0
    4.1580    0.3371   20.6990 H   0  0  0  0  0  0  0  0  0  0  0  0
    8.7926   -1.1940   23.5682 H   0  0  0  0  0  0  0  0  0  0  0  0
    9.5988   -2.8165   22.0577 H   0  0  0  0  0  0  0  0  0  0  0  0
    9.8070   -1.5663   20.8206 H   0  0  0  0  0  0  0  0  0  0  0  0
  1  2  1  0
  2  3  2  0
  2  4  1  0
  4  5  1  0
  5  6  1  0
  6  7  1  0
  7  8  4  0
  8  9  4  0
  9 10  4  0
 10 11  1  0
 10 12  4  0
 12 13  1  0
 12 14  4  0
  5 15  1  0
 15 16  2  0
 15 17  1  0
 17 18  1  0
 18 19  1  0
 19 20  3  0
 20 21  1  0
 14  7  4  0
  1 22  1  0
  1 23  1  0
  1 24  1  0
  4 25  1  0
  5 26  1  1
  6 27  1  0
  6 28  1  0
  8 29  1  0
  9 30  1  0
 11 31  1  0
 13 32  1  0
 13 33  1  0
 14 34  1  0
 17 35  1  0
 18 36  1  0
 18 37  1  0
M  END
