LIG
     RDKit          3D

 32 34  0  0  0  0  0  0  0  0999 V2000
    2.0580    0.6400   23.7610 O   0  0  0  0  0  0  0  0  0  0  0  0
    2.1860    1.8200   23.8150 C   0  0  0  0  0  0  0  0  0  0  0  0
    3.3230    2.4740   23.1750 N   0  0  0  0  0  0  0  0  0  0  0  0
    4.3320    1.7170   22.4340 C   0  0  0  0  0  0  0  0  0  0  0  0
    3.8370    1.6420   20.9890 C   0  0  0  0  0  0  0  0  0  0  0  0
    4.2740    1.6420   19.7390 C   0  0  0  0  0  0  0  0  0  0  0  0
    3.3371    3.0322   19.1959 C   0  0  0  0  0  0  0  0  0  0  0  0
    3.5754    3.3174   17.8519 C   0  0  0  0  0  0  0  0  0  0  0  0
    3.6151    3.7770   16.6745 C   0  0  0  0  0  0  0  0  0  0  0  0
    4.4126    2.7052   16.8585 N   0  0  0  0  0  0  0  0  0  0  0  0
    5.0249    1.6576   17.5132 C   0  0  0  0  0  0  0  0  0  0  0  0
    4.7005    1.4720   18.8990 C   0  0  0  0  0  0  0  0  0  0  0  0
    1.1280    2.6340   24.5580 C   0  0  0  0  0  0  0  0  0  0  0  0
   -0.1860    2.1670   24.5890 C   0  0  0  0  0  0  0  0  0  0  0  0
   -1.1770    2.8770   25.2530 C   0  0  0  0  0  0  0  0  0  0  0  0
   -0.8610    4.0710   25.8830 C   0  0  0  0  0  0  0  0  0  0  0  0
    0.4450    4.5400   25.8480 C   0  0  0  0  0  0  0  0  0  0  0  0
    1.4450    3.8310   25.1930 C   0  0  0  0  0  0  0  0  0  0  0  0
    2.7270    4.3200   25.1830 F   0  0  0  0  0  0  0  0  0  0  0  0
    3.3636    3.4717   23.2047 H   0  0  0  0  0  0  0  0  0  0  0  0
    4.4208    0.7430   22.8713 H   0  0  0  0  0  0  0  0  0  0  0  0
    5.2511    2.2647   22.5019 H   0  0  0  0  0  0  0  0  0  0  0  0
    2.9782    0.7108   21.0613 H   0  0  0  0  0  0  0  0  0  0  0  0
    2.8664    2.4545   21.0381 H   0  0  0  0  0  0  0  0  0  0  0  0
    2.6456    3.6312   19.7724 H   0  0  0  0  0  0  0  0  0  0  0  0
    3.3335    4.4569   15.9106 H   0  0  0  0  0  0  0  0  0  0  0  0
    5.6825    1.1162   16.8393 H   0  0  0  0  0  0  0  0  0  0  0  0
    4.7440    2.1684   17.8869 H   0  0  0  0  0  0  0  0  0  0  0  0
   -0.4459    1.2308   24.0870 H   0  0  0  0  0  0  0  0  0  0  0  0
   -2.1963    2.4970   25.2780 H   0  0  0  0  0  0  0  0  0  0  0  0
   -1.6322    4.6374   26.4015 H   0  0  0  0  0  0  0  0  0  0  0  0
    0.7003    5.4844   26.3421 H   0  0  0  0  0  0  0  0  0  0  0  0
  1  2  2  0
  2  3  1  0
  3  4  1  0
  4  5  1  0
  5  6  1  0
  6  7  2  0
  7  8  1  0
  8  9  2  0
  9 10  1  0
 10 11  1  0
 11 12  2  0
  2 13  1  0
 13 14  4  0
 14 15  4  0
 15 16  4  0
 16 17  4  0
 17 18  4  0
 18 19  1  0
 12  6  1  0
 18 13  4  0
 10  8  1  0
  3 20  1  0
  4 21  1  0
  4 22  1  0
  5 23  1  0
  5 24  1  0
  7 25  1  0
  9 26  1  0
 11 27  1  0
 12 28  1  0
 14 29  1  0
 15 30  1  0
 16 31  1  0
 17 32  1  0
M  END
