
     RDKit          3D

 30 31  0  0  0  0  0  0  0  0999 V2000
    3.6560    2.5590   18.7610 C   0  0  0  0  0  0  0  0  0  0  0  0
    4.7670    1.5580   18.7660 C   0  0  0  0  0  0  0  0  0  0  0  0
    5.2400    1.0140   19.9070 C   0  0  0  0  0  0  0  0  0  0  0  0
    6.3260    0.1060   19.5280 C   0  0  0  0  0  0  0  0  0  0  0  0
    7.0760   -0.6270   20.5740 C   0  0  0  0  0  0  0  0  0  0  0  0
    7.2200   -2.0480   20.4450 N   0  0  0  0  0  0  0  0  0  0  0  0
    8.3120   -2.3520   21.3980 C   0  0  0  0  0  0  0  0  0  0  0  0
    6.1950   -3.0720   20.7360 C   0  0  0  0  0  0  0  0  0  0  0  0
    5.5220   -3.6720   19.8690 O   0  0  0  0  0  0  0  0  0  0  0  0
    6.0730   -3.2940   21.8750 N   0  0  0  0  0  0  0  0  0  0  0  0
    5.5580   -4.4900   22.3220 C   0  0  1  0  0  0  0  0  0  0  0  0
    6.1670   -5.7190   21.9370 C   0  0  0  0  0  0  0  0  0  0  0  0
    6.4480   -5.4690   23.3240 C   0  0  0  0  0  0  0  0  0  0  0  0
    6.4880    0.1070   18.0990 N   0  0  0  0  0  0  0  0  0  0  0  0
    5.5170    1.0150   17.6490 O   0  0  0  0  0  0  0  0  0  0  0  0
    3.6550    3.1580   17.8480 H   0  0  0  0  0  0  0  0  0  0  0  0
    2.7020    2.0440   18.8440 H   0  0  0  0  0  0  0  0  0  0  0  0
    3.7870    3.2290   19.6120 H   0  0  0  0  0  0  0  0  0  0  0  0
    4.9040    1.2020   20.9190 H   0  0  0  0  0  0  0  0  0  0  0  0
    6.5750   -0.3900   21.5240 H   0  0  0  0  0  0  0  0  0  0  0  0
    8.0470   -0.1490   20.6300 H   0  0  0  0  0  0  0  0  0  0  0  0
    8.1290   -1.7810   22.3140 H   0  0  0  0  0  0  0  0  0  0  0  0
    8.2830   -3.4190   21.6410 H   0  0  0  0  0  0  0  0  0  0  0  0
    9.2980   -2.1140   21.0360 H   0  0  0  0  0  0  0  0  0  0  0  0
    6.3180   -2.6360   22.6040 H   0  0  0  0  0  0  0  0  0  0  0  0
    4.4860   -4.4620   22.4940 H   0  0  0  0  0  0  0  0  0  0  0  0
    5.4260   -6.5220   21.8100 H   0  0  0  0  0  0  0  0  0  0  0  0
    6.9840   -5.8040   21.2250 H   0  0  0  0  0  0  0  0  0  0  0  0
    5.9600   -6.2050   23.9660 H   0  0  0  0  0  0  0  0  0  0  0  0
    7.5270   -5.3100   23.4540 H   0  0  0  0  0  0  0  0  0  0  0  0
  1  2  1  0
  2  3  2  0
  3  4  1  0
  4  5  1  0
  5  6  1  0
  6  7  1  0
  6  8  1  0
  8  9  2  0
  8 10  1  0
 10 11  1  0
 11 12  1  0
 11 13  1  0
 12 13  1  0
  4 14  2  0
  2 15  1  0
 14 15  1  0
  1 16  1  0
  1 17  1  0
  1 18  1  0
  3 19  1  0
  5 20  1  0
  5 21  1  0
  7 22  1  0
  7 23  1  0
  7 24  1  0
 10 25  1  0
 11 26  1  1
 12 27  1  0
 12 28  1  0
 13 29  1  0
 13 30  1  0
M  END
