LIG
     RDKit          3D

 37 37  0  0  0  0  0  0  0  0999 V2000
    7.6470    4.9230   22.5630 C   0  0  0  0  0  0  0  0  0  0  0  0
    7.2040    3.5440   22.9320 C   0  0  0  0  0  0  0  0  0  0  0  0
    6.2270    3.3360   23.6430 O   0  0  0  0  0  0  0  0  0  0  0  0
    7.9040    2.5380   22.4150 N   0  0  0  0  0  0  0  0  0  0  0  0
    7.7770    1.1690   22.8930 C   0  0  1  0  0  0  0  0  0  0  0  0
    6.4470    0.5230   22.4720 C   0  0  0  0  0  0  0  0  0  0  0  0
    6.2110    0.5770   20.9840 C   0  0  0  0  0  0  0  0  0  0  0  0
    6.4730   -0.4685   19.8280 C   0  0  0  0  0  0  0  0  0  0  0  0
    6.6390   -0.3275   18.5155 C   0  0  0  0  0  0  0  0  0  0  0  0
    5.5575    1.0560   18.0450 C   0  0  0  0  0  0  0  0  0  0  0  0
    5.9515    0.6580   17.1595 O   0  0  0  0  0  0  0  0  0  0  0  0
    4.9030    1.4235   19.1015 C   0  0  0  0  0  0  0  0  0  0  0  0
    3.7110    2.1190   19.5450 N   0  0  0  0  0  0  0  0  0  0  0  0
    5.2240    0.8475   20.1895 C   0  0  0  0  0  0  0  0  0  0  0  0
    8.9700    0.4030   22.3370 C   0  0  0  0  0  0  0  0  0  0  0  0
    9.8170    0.9750   21.6560 O   0  0  0  0  0  0  0  0  0  0  0  0
    9.0130   -0.8970   22.6070 N   0  0  0  0  0  0  0  0  0  0  0  0
    9.9110   -1.7790   21.8910 C   0  0  0  0  0  0  0  0  0  0  0  0
   11.2900   -1.5690   22.3350 C   0  0  0  0  0  0  0  0  0  0  0  0
   12.4300   -1.6070   22.7390 C   0  0  0  0  0  0  0  0  0  0  0  0
   14.1250   -1.9140   23.6280 Br  0  0  0  0  0  0  0  0  0  0  0  0
    7.9436    5.4632   23.4682 H   0  0  0  0  0  0  0  0  0  0  0  0
    8.4988    4.8596   21.8785 H   0  0  0  0  0  0  0  0  0  0  0  0
    6.8449    5.4905   22.0785 H   0  0  0  0  0  0  0  0  0  0  0  0
    8.8598    2.7719   22.0787 H   0  0  0  0  0  0  0  0  0  0  0  0
    7.8486    1.1902   24.0056 H   0  0  0  0  0  0  0  0  0  0  0  0
    6.4091   -0.5194   22.8157 H   0  0  0  0  0  0  0  0  0  0  0  0
    5.6089    1.0244   22.9739 H   0  0  0  0  0  0  0  0  0  0  0  0
    6.5285   -1.5369   20.2790 H   0  0  0  0  0  0  0  0  0  0  0  0
    7.1115   -0.6926   17.7872 H   0  0  0  0  0  0  0  0  0  0  0  0
    5.2720    0.3230   16.4580 H   0  0  0  0  0  0  0  0  0  0  0  0
    3.2702    2.5541   18.7437 H   0  0  0  0  0  0  0  0  0  0  0  0
    2.8729    1.5881   19.3888 H   0  0  0  0  0  0  0  0  0  0  0  0
    4.1574    0.3425   20.6969 H   0  0  0  0  0  0  0  0  0  0  0  0
    8.7378   -1.2196   23.5354 H   0  0  0  0  0  0  0  0  0  0  0  0
    9.8175   -1.6206   20.8118 H   0  0  0  0  0  0  0  0  0  0  0  0
    9.5929   -2.8028   22.1127 H   0  0  0  0  0  0  0  0  0  0  0  0
  1  2  1  0
  2  3  2  0
  2  4  1  0
  4  5  1  0
  5  6  1  0
  6  7  1  0
  7  8  4  0
  8  9  4  0
  9 10  4  0
 10 11  1  0
 10 12  4  0
 12 13  1  0
 12 14  4  0
  5 15  1  0
 15 16  2  0
 15 17  1  0
 17 18  1  0
 18 19  1  0
 19 20  3  0
 20 21  1  0
 14  7  4  0
  1 22  1  0
  1 23  1  0
  1 24  1  0
  4 25  1  0
  5 26  1  1
  6 27  1  0
  6 28  1  0
  8 29  1  0
  9 30  1  0
 11 31  1  0
 13 32  1  0
 13 33  1  0
 14 34  1  0
 17 35  1  0
 18 36  1  0
 18 37  1  0
M  END
