LIG
     RDKit          3D

 36 37  0  0  0  0  0  0  0  0999 V2000
    3.7110    2.1190   19.5450 N   0  0  0  0  0  0  0  0  0  0  0  0
    4.9105    1.2450   19.1120 C   0  0  0  0  0  0  0  0  0  0  0  0
    5.5475    1.2135   17.8705 C   0  0  0  0  0  0  0  0  0  0  0  0
    6.6145    0.5005   17.6255 N   0  0  0  0  0  0  0  0  0  0  0  0
    7.0950   -0.2130   18.5810 C   0  0  0  0  0  0  0  0  0  0  0  0
    6.5245   -0.2505   19.8205 C   0  0  0  0  0  0  0  0  0  0  0  0
    7.6120   -0.2560   21.3260 N   0  0  0  0  0  0  0  0  0  0  0  0
    8.8650    0.3120   21.6960 C   0  0  0  0  0  0  0  0  0  0  0  0
    9.4190    1.1020   21.0000 O   0  0  0  0  0  0  0  0  0  0  0  0
    9.4090   -0.1550   23.0330 C   0  0  0  0  0  0  0  0  0  0  0  0
   10.9230   -0.0800   23.0900 C   0  0  0  0  0  0  0  0  0  0  0  0
   11.2810   -0.4020   24.5270 C   0  0  0  0  0  0  0  0  0  0  0  0
   12.7710   -0.1530   24.6900 C   0  0  0  0  0  0  0  0  0  0  0  0
   13.6100   -0.8590   23.6290 C   0  0  0  0  0  0  0  0  0  0  0  0
   12.8180   -1.7130   22.6470 C   0  0  0  0  0  0  0  0  0  0  0  0
   11.5620   -1.0470   22.0960 C   0  0  0  0  0  0  0  0  0  0  0  0
    5.4390    0.4880   20.0990 C   0  0  0  0  0  0  0  0  0  0  0  0
    3.4713    1.9271   20.4853 H   0  0  0  0  0  0  0  0  0  0  0  0
    3.9003    2.5635   20.4062 H   0  0  0  0  0  0  0  0  0  0  0  0
    5.1647    1.8022   17.0445 H   0  0  0  0  0  0  0  0  0  0  0  0
    7.9790   -0.7951   18.3303 H   0  0  0  0  0  0  0  0  0  0  0  0
    7.0761   -0.8495   21.9864 H   0  0  0  0  0  0  0  0  0  0  0  0
    9.0823   -1.1906   23.1586 H   0  0  0  0  0  0  0  0  0  0  0  0
    8.9642    0.4476   23.8278 H   0  0  0  0  0  0  0  0  0  0  0  0
   10.3740   -1.7849   23.4852 H   0  0  0  0  0  0  0  0  0  0  0  0
   11.0603   -1.4340   24.7277 H   0  0  0  0  0  0  0  0  0  0  0  0
   10.7472    0.2178   25.2222 H   0  0  0  0  0  0  0  0  0  0  0  0
   12.9702    0.9287   24.6333 H   0  0  0  0  0  0  0  0  0  0  0  0
   13.0947   -0.4664   25.6934 H   0  0  0  0  0  0  0  0  0  0  0  0
   14.2098   -0.1116   23.0672 H   0  0  0  0  0  0  0  0  0  0  0  0
   14.3657   -1.4944   24.1402 H   0  0  0  0  0  0  0  0  0  0  0  0
   13.4631   -2.0010   21.8005 H   0  0  0  0  0  0  0  0  0  0  0  0
   12.5489   -2.6597   23.1441 H   0  0  0  0  0  0  0  0  0  0  0  0
   10.8528   -1.8296   21.7832 H   0  0  0  0  0  0  0  0  0  0  0  0
   11.8211   -0.5006   21.1727 H   0  0  0  0  0  0  0  0  0  0  0  0
    4.9840    0.4879   21.0843 H   0  0  0  0  0  0  0  0  0  0  0  0
  1  2  1  0
  2  3  4  0
  3  4  4  0
  4  5  4  0
  5  6  4  0
  6  7  1  0
  7  8  1  0
  8  9  2  0
  8 10  1  0
 10 11  1  0
 11 12  1  0
 12 13  1  0
 13 14  1  0
 14 15  1  0
 15 16  1  0
  6 17  4  0
 17  2  4  0
 16 11  1  0
  1 18  1  0
  1 19  1  0
  3 20  1  0
  5 21  1  0
  7 22  1  0
 10 23  1  0
 10 24  1  0
 11 25  1  0
 12 26  1  0
 12 27  1  0
 13 28  1  0
 13 29  1  0
 14 30  1  0
 14 31  1  0
 15 32  1  0
 15 33  1  0
 16 34  1  0
 16 35  1  0
 17 36  1  0
M  END
