
     RDKit          3D

 41 42  0  0  0  0  0  0  0  0999 V2000
    3.5520    1.7980   20.0000 N   0  0  0  0  0  0  0  0  0  0  0  0
    4.4060    1.3590   19.3550 C   0  0  0  0  0  0  0  0  0  0  0  0
    5.1980    1.3090   18.0480 C   0  0  0  0  0  0  0  0  0  0  0  0
    6.3220    0.4450   17.7700 N   0  0  0  0  0  0  0  0  0  0  0  0
    6.7490   -0.4300   18.7340 C   0  0  0  0  0  0  0  0  0  0  0  0
    6.0910   -0.5100   20.0610 C   0  0  0  0  0  0  0  0  0  0  0  0
    4.9330    0.4030   20.3180 C   0  0  0  0  0  0  0  0  0  0  0  0
    4.3200    0.3360   21.5610 C   0  0  0  0  0  0  0  0  0  0  0  0
    4.9380    1.3440   22.5220 C   0  0  0  0  0  0  0  0  0  0  0  0
    4.0840    2.5940   22.5680 N   0  0  0  0  0  0  0  0  0  0  0  0
    2.7610    2.4420   23.2910 C   0  0  0  0  0  0  0  0  0  0  0  0
    2.6990    1.4780   24.3300 O   0  0  0  0  0  0  0  0  0  0  0  0
    1.6970    3.2040   22.9390 N   0  0  0  0  0  0  0  0  0  0  0  0
    0.7200    3.3210   23.8780 C   0  0  1  0  0  0  0  0  0  0  0  0
    0.4820    4.6720   24.5690 C   0  0  0  0  0  0  0  0  0  0  0  0
   -0.7750    4.8870   25.1250 C   0  0  0  0  0  0  0  0  0  0  0  0
   -1.8050    4.5590   24.2440 C   0  0  0  0  0  0  0  0  0  0  0  0
   -1.6990    3.2980   23.6660 C   0  0  0  0  0  0  0  0  0  0  0  0
   -0.4500    2.8370   23.2550 C   0  0  0  0  0  0  0  0  0  0  0  0
    3.5850    1.4320   20.9520 H   0  0  0  0  0  0  0  0  0  0  0  0
    3.3380    2.7990   19.9640 H   0  0  0  0  0  0  0  0  0  0  0  0
    4.8550    2.0080   17.2750 H   0  0  0  0  0  0  0  0  0  0  0  0
    7.5970   -1.0610   18.4760 H   0  0  0  0  0  0  0  0  0  0  0  0
    6.3640   -1.1670   20.8810 H   0  0  0  0  0  0  0  0  0  0  0  0
    3.2360    0.4940   21.4800 H   0  0  0  0  0  0  0  0  0  0  0  0
    4.4570   -0.6690   21.9780 H   0  0  0  0  0  0  0  0  0  0  0  0
    5.9320    1.6420   22.1940 H   0  0  0  0  0  0  0  0  0  0  0  0
    5.0050    0.9240   23.5320 H   0  0  0  0  0  0  0  0  0  0  0  0
    4.0950    3.1690   21.7330 H   0  0  0  0  0  0  0  0  0  0  0  0
    1.3980    3.0740   21.9880 H   0  0  0  0  0  0  0  0  0  0  0  0
    0.8970    2.6160   24.6990 H   0  0  0  0  0  0  0  0  0  0  0  0
    1.1660    4.6800   25.4240 H   0  0  0  0  0  0  0  0  0  0  0  0
    0.8480    5.4480   23.8870 H   0  0  0  0  0  0  0  0  0  0  0  0
   -0.9650    5.9390   25.3450 H   0  0  0  0  0  0  0  0  0  0  0  0
   -0.8950    4.4600   26.1240 H   0  0  0  0  0  0  0  0  0  0  0  0
   -2.7750    4.5030   24.7470 H   0  0  0  0  0  0  0  0  0  0  0  0
   -2.0000    5.3680   23.5430 H   0  0  0  0  0  0  0  0  0  0  0  0
   -2.1100    2.5650   24.3700 H   0  0  0  0  0  0  0  0  0  0  0  0
   -2.3700    3.2430   22.7990 H   0  0  0  0  0  0  0  0  0  0  0  0
   -0.4530    1.7450   23.3630 H   0  0  0  0  0  0  0  0  0  0  0  0
   -0.3940    3.0240   22.1760 H   0  0  0  0  0  0  0  0  0  0  0  0
  1  2  1  0
  2  3  2  0
  3  4  1  0
  4  5  2  0
  5  6  1  0
  2  7  1  0
  6  7  2  0
  7  8  1  0
  8  9  1  0
  9 10  1  0
 10 11  1  0
 11 12  2  0
 11 13  1  0
 13 14  1  0
 14 15  1  0
 15 16  1  0
 16 17  1  0
 17 18  1  0
 14 19  1  0
 18 19  1  0
  1 20  1  0
  1 21  1  0
  3 22  1  0
  5 23  1  0
  6 24  1  0
  8 25  1  0
  8 26  1  0
  9 27  1  0
  9 28  1  0
 10 29  1  0
 13 30  1  0
 14 31  1  1
 15 32  1  0
 15 33  1  0
 16 34  1  0
 16 35  1  0
 17 36  1  0
 17 37  1  0
 18 38  1  0
 18 39  1  0
 19 40  1  0
 19 41  1  0
M  END
