
     RDKit          3D

 37 39  0  0  0  0  0  0  0  0999 V2000
   13.3160   -1.6330   23.7530 C   0  0  0  0  0  0  0  0  0  0  0  0
   12.1140   -1.1540   23.1210 N   0  0  0  0  0  0  0  0  0  0  0  0
   10.9860   -1.9970   23.5190 C   0  0  0  0  0  0  0  0  0  0  0  0
    9.8040   -1.5200   22.9550 C   0  0  0  0  0  0  0  0  0  0  0  0
    9.8130   -0.1910   22.6820 N   0  0  0  0  0  0  0  0  0  0  0  0
    8.9160    0.3320   21.6370 C   0  0  0  0  0  0  0  0  0  0  0  0
    8.9820    1.6780   21.1960 O   0  0  0  0  0  0  0  0  0  0  0  0
    7.9470   -0.6840   21.1040 C   0  0  0  0  0  0  0  0  0  0  0  0
    7.0610   -0.2290   20.1540 C   0  0  0  0  0  0  0  0  0  0  0  0
    7.3360   -0.6060   18.7390 C   0  0  0  0  0  0  0  0  0  0  0  0
    6.2720    0.0300   17.9490 N   0  0  0  0  0  0  0  0  0  0  0  0
    5.3530    0.7720   18.8790 C   0  0  0  0  0  0  0  0  0  0  0  0
    4.2660    1.4700   18.4800 N   0  0  0  0  0  0  0  0  0  0  0  0
    3.6130    2.0350   19.5110 C   0  0  0  0  0  0  0  0  0  0  0  0
    4.0500    1.9030   20.9440 C   0  0  0  0  0  0  0  0  0  0  0  0
    5.1640    1.1820   21.2370 C   0  0  0  0  0  0  0  0  0  0  0  0
    5.8750    0.5780   20.2180 C   0  0  0  0  0  0  0  0  0  0  0  0
   10.5850    0.6400   23.5000 C   0  0  0  0  0  0  0  0  0  0  0  0
   11.9240    0.2840   23.4040 C   0  0  0  0  0  0  0  0  0  0  0  0
   13.0700   -2.2520   24.6220 H   0  0  0  0  0  0  0  0  0  0  0  0
   13.9190   -2.2370   23.0720 H   0  0  0  0  0  0  0  0  0  0  0  0
   13.8770   -0.7750   24.0870 H   0  0  0  0  0  0  0  0  0  0  0  0
   10.8820   -1.9960   24.6080 H   0  0  0  0  0  0  0  0  0  0  0  0
   11.1620   -3.0230   23.1850 H   0  0  0  0  0  0  0  0  0  0  0  0
    8.9730   -1.7200   23.6390 H   0  0  0  0  0  0  0  0  0  0  0  0
    9.5770   -2.0930   22.0430 H   0  0  0  0  0  0  0  0  0  0  0  0
    7.5080   -1.3120   21.8760 H   0  0  0  0  0  0  0  0  0  0  0  0
    8.5670   -1.4010   20.5570 H   0  0  0  0  0  0  0  0  0  0  0  0
    8.1500   -1.2120   18.3510 H   0  0  0  0  0  0  0  0  0  0  0  0
    6.1430    0.0040   16.9470 H   0  0  0  0  0  0  0  0  0  0  0  0
    2.7070    2.6290   19.3360 H   0  0  0  0  0  0  0  0  0  0  0  0
    3.4790    2.3830   21.7460 H   0  0  0  0  0  0  0  0  0  0  0  0
    5.5140    1.0650   22.2630 H   0  0  0  0  0  0  0  0  0  0  0  0
   10.3100    1.6570   23.2300 H   0  0  0  0  0  0  0  0  0  0  0  0
   10.2690    0.5000   24.5350 H   0  0  0  0  0  0  0  0  0  0  0  0
   12.4190    0.5020   24.3550 H   0  0  0  0  0  0  0  0  0  0  0  0
   12.4310    0.8770   22.6330 H   0  0  0  0  0  0  0  0  0  0  0  0
  1  2  1  0
  2  3  1  0
  3  4  1  0
  4  5  1  0
  5  6  1  0
  6  7  2  0
  6  8  1  0
  8  9  1  0
  9 10  2  0
 10 11  1  0
 11 12  1  0
 12 13  1  0
 13 14  2  0
 14 15  1  0
 15 16  2  0
  9 17  1  0
 12 17  2  0
 16 17  1  0
  5 18  1  0
  2 19  1  0
 18 19  1  0
  1 20  1  0
  1 21  1  0
  1 22  1  0
  3 23  1  0
  3 24  1  0
  4 25  1  0
  4 26  1  0
  8 27  1  0
  8 28  1  0
 10 29  1  0
 11 30  1  0
 14 31  1  0
 15 32  1  0
 16 33  1  0
 18 34  1  0
 18 35  1  0
 19 36  1  0
 19 37  1  0
M  END
