LIG
     RDKit          3D

 41 42  0  0  0  0  0  0  0  0999 V2000
    3.7110    2.1190   19.5450 N   0  0  0  0  0  0  0  0  0  0  0  0
    4.6570    1.2785   19.2560 C   0  0  0  0  0  0  0  0  0  0  0  0
    5.1880    1.3550   17.9595 C   0  0  0  0  0  0  0  0  0  0  0  0
    6.1755    0.5585   17.5430 N   0  0  0  0  0  0  0  0  0  0  0  0
    6.6625   -0.3435   18.3715 C   0  0  0  0  0  0  0  0  0  0  0  0
    6.2140   -0.5075   19.6650 C   0  0  0  0  0  0  0  0  0  0  0  0
    5.2145    0.3145   20.1015 C   0  0  0  0  0  0  0  0  0  0  0  0
    4.8810    0.3160   21.7180 C   0  0  0  0  0  0  0  0  0  0  0  0
    5.2050    1.5540   22.5490 C   0  0  0  0  0  0  0  0  0  0  0  0
    4.0700    2.4460   22.4650 N   0  0  0  0  0  0  0  0  0  0  0  0
    2.9270    2.3110   23.3520 C   0  0  0  0  0  0  0  0  0  0  0  0
    2.8920    1.4710   24.2020 O   0  0  0  0  0  0  0  0  0  0  0  0
    1.8460    3.2530   23.1370 N   0  0  0  0  0  0  0  0  0  0  0  0
    0.6480    3.2940   23.9490 C   0  0  0  0  0  0  0  0  0  0  0  0
    0.5370    4.7360   24.4510 C   0  0  0  0  0  0  0  0  0  0  0  0
   -0.7860    4.9880   25.1580 C   0  0  0  0  0  0  0  0  0  0  0  0
   -1.9540    4.6680   24.2350 C   0  0  0  0  0  0  0  0  0  0  0  0
   -1.8960    3.2340   23.7250 C   0  0  0  0  0  0  0  0  0  0  0  0
   -0.5430    2.8790   23.0980 C   0  0  0  0  0  0  0  0  0  0  0  0
    2.8139    1.7443   19.9023 H   0  0  0  0  0  0  0  0  0  0  0  0
    3.5066    2.8578   18.8450 H   0  0  0  0  0  0  0  0  0  0  0  0
    4.8193    2.0583   17.2466 H   0  0  0  0  0  0  0  0  0  0  0  0
    7.4677   -0.9668   17.9814 H   0  0  0  0  0  0  0  0  0  0  0  0
    6.6650   -1.2657   20.2947 H   0  0  0  0  0  0  0  0  0  0  0  0
    3.8016    0.0408   21.7949 H   0  0  0  0  0  0  0  0  0  0  0  0
    5.3928   -0.5874   22.1257 H   0  0  0  0  0  0  0  0  0  0  0  0
    6.0539    2.0800   22.1603 H   0  0  0  0  0  0  0  0  0  0  0  0
    5.3544    1.2757   23.5743 H   0  0  0  0  0  0  0  0  0  0  0  0
    3.8008    2.7805   21.5534 H   0  0  0  0  0  0  0  0  0  0  0  0
    2.2043    4.1378   22.7807 H   0  0  0  0  0  0  0  0  0  0  0  0
    0.7807    2.6299   24.7729 H   0  0  0  0  0  0  0  0  0  0  0  0
    1.3631    4.9359   25.1363 H   0  0  0  0  0  0  0  0  0  0  0  0
    0.6364    5.4483   23.6297 H   0  0  0  0  0  0  0  0  0  0  0  0
   -0.8473    6.0357   25.4611 H   0  0  0  0  0  0  0  0  0  0  0  0
   -0.8446    4.3853   26.0651 H   0  0  0  0  0  0  0  0  0  0  0  0
   -2.8939    4.8256   24.7804 H   0  0  0  0  0  0  0  0  0  0  0  0
   -1.9679    5.3628   23.3868 H   0  0  0  0  0  0  0  0  0  0  0  0
   -2.1079    2.5533   24.5548 H   0  0  0  0  0  0  0  0  0  0  0  0
   -2.6793    3.0687   22.9794 H   0  0  0  0  0  0  0  0  0  0  0  0
   -0.5164    1.7943   22.8895 H   0  0  0  0  0  0  0  0  0  0  0  0
   -0.4710    3.3601   22.1047 H   0  0  0  0  0  0  0  0  0  0  0  0
  1  2  1  0
  2  3  4  0
  3  4  4  0
  4  5  4  0
  5  6  4  0
  6  7  4  0
  7  8  1  0
  8  9  1  0
  9 10  1  0
 10 11  1  0
 11 12  2  0
 11 13  1  0
 13 14  1  0
 14 15  1  0
 15 16  1  0
 16 17  1  0
 17 18  1  0
 18 19  1  0
  7  2  4  0
 19 14  1  0
  1 20  1  0
  1 21  1  0
  3 22  1  0
  5 23  1  0
  6 24  1  0
  8 25  1  0
  8 26  1  0
  9 27  1  0
  9 28  1  0
 10 29  1  0
 13 30  1  0
 14 31  1  0
 15 32  1  0
 15 33  1  0
 16 34  1  0
 16 35  1  0
 17 36  1  0
 17 37  1  0
 18 38  1  0
 18 39  1  0
 19 40  1  0
 19 41  1  0
M  END
