LIG
     RDKit          3D

 30 31  0  0  0  0  0  0  0  0999 V2000
    3.7865    2.0875   19.5405 C   0  0  0  0  0  0  0  0  0  0  0  0
    4.8205    1.2595   19.0000 C   0  0  0  0  0  0  0  0  0  0  0  0
    5.2940    0.1240   19.6260 C   0  0  0  0  0  0  0  0  0  0  0  0
    6.5035   -0.4040   18.3350 C   0  0  0  0  0  0  0  0  0  0  0  0
    6.6675   -1.1590   19.0140 C   0  0  0  0  0  0  0  0  0  0  0  0
    7.3620   -2.0310   19.9170 N   0  0  0  0  0  0  0  0  0  0  0  0
    8.3210   -1.3510   20.7970 C   0  0  0  0  0  0  0  0  0  0  0  0
    6.4780   -3.0650   20.4600 C   0  0  0  0  0  0  0  0  0  0  0  0
    5.7050   -3.6090   19.7340 O   0  0  0  0  0  0  0  0  0  0  0  0
    6.5520   -3.4250   21.8840 N   0  0  0  0  0  0  0  0  0  0  0  0
    5.6750   -4.4640   22.4420 C   0  0  0  0  0  0  0  0  0  0  0  0
    5.9460   -5.8890   21.9520 C   0  0  0  0  0  0  0  0  0  0  0  0
    6.3670   -5.4690   23.3670 C   0  0  0  0  0  0  0  0  0  0  0  0
    6.3760    0.5670   17.4410 N   0  0  0  0  0  0  0  0  0  0  0  0
    5.4460    1.4735   17.8030 O   0  0  0  0  0  0  0  0  0  0  0  0
    4.1925    2.9179   20.1408 H   0  0  0  0  0  0  0  0  0  0  0  0
    3.1110    1.5152   20.1966 H   0  0  0  0  0  0  0  0  0  0  0  0
    3.8181    2.1078   20.6418 H   0  0  0  0  0  0  0  0  0  0  0  0
    5.1979   -0.4164   20.4197 H   0  0  0  0  0  0  0  0  0  0  0  0
    5.8788   -2.2109   18.5443 H   0  0  0  0  0  0  0  0  0  0  0  0
    5.5608   -1.0917   19.8660 H   0  0  0  0  0  0  0  0  0  0  0  0
    7.8507   -0.4418   21.1756 H   0  0  0  0  0  0  0  0  0  0  0  0
    8.5708   -2.0148   21.6262 H   0  0  0  0  0  0  0  0  0  0  0  0
    9.2356   -1.0902   20.2639 H   0  0  0  0  0  0  0  0  0  0  0  0
    7.4681   -3.3587   22.2641 H   0  0  0  0  0  0  0  0  0  0  0  0
    7.6492   -4.7704   21.9482 H   0  0  0  0  0  0  0  0  0  0  0  0
    5.1056   -6.5502   21.8611 H   0  0  0  0  0  0  0  0  0  0  0  0
    6.7202   -6.0105   21.2185 H   0  0  0  0  0  0  0  0  0  0  0  0
    5.8016   -5.8732   24.1854 H   0  0  0  0  0  0  0  0  0  0  0  0
    7.4165   -5.3284   23.5458 H   0  0  0  0  0  0  0  0  0  0  0  0
  1  2  1  0
  2  3  4  0
  3  4  4  0
  4  5  1  0
  5  6  1  0
  6  7  1  0
  6  8  1  0
  8  9  2  0
  8 10  1  0
 10 11  1  0
 11 12  1  0
 12 13  1  0
  4 14  4  0
 14 15  4  0
 15  2  4  0
 13 11  1  0
  1 16  1  0
  1 17  1  0
  1 18  1  0
  3 19  1  0
  5 20  1  0
  5 21  1  0
  7 22  1  0
  7 23  1  0
  7 24  1  0
 10 25  1  0
 11 26  1  0
 12 27  1  0
 12 28  1  0
 13 29  1  0
 13 30  1  0
M  END
