LIG
     RDKit          3D

 39 41  0  0  0  0  0  0  0  0999 V2000
   10.7620  -27.0230    3.8425 F   0  0  0  0  0  0  0  0  0  0  0  0
   11.4625  -26.2215    3.5150 C   0  0  0  0  0  0  0  0  0  0  0  0
   11.9980  -25.1200    3.4875 C   0  0  0  0  0  0  0  0  0  0  0  0
   12.7200  -24.3090    3.1305 C   0  0  0  0  0  0  0  0  0  0  0  0
   14.1570  -25.1990    4.0970 C   0  0  0  0  0  0  0  0  0  0  0  0
   14.1140  -26.5930    4.2030 C   0  0  0  0  0  0  0  0  0  0  0  0
   13.0090  -27.3300    3.9320 N   0  0  0  0  0  0  0  0  0  0  0  0
   11.5930  -23.9790    1.4950 C   0  0  0  0  0  0  0  0  0  0  0  0
   10.4520  -24.7780    1.4210 C   0  0  0  0  0  0  0  0  0  0  0  0
    9.4810  -24.6770    0.2020 C   0  0  0  0  0  0  0  0  0  0  0  0
    9.0000  -23.3000   -0.0340 N   0  0  0  0  0  0  0  0  0  0  0  0
    8.0790  -23.3150   -1.1050 C   0  0  0  0  0  0  0  0  0  0  0  0
    7.2540  -22.0210   -1.1510 C   0  0  0  0  0  0  0  0  0  0  0  0
    7.6000  -20.8310   -1.7870 C   0  0  0  0  0  0  0  0  0  0  0  0
    6.5650  -19.9320   -1.5760 C   0  0  0  0  0  0  0  0  0  0  0  0
    5.5790  -20.6070   -0.7990 C   0  0  0  0  0  0  0  0  0  0  0  0
    6.0190  -21.8390   -0.5760 O   0  0  0  0  0  0  0  0  0  0  0  0
   10.1740  -25.6950    2.4210 C   0  0  0  0  0  0  0  0  0  0  0  0
   12.0351  -24.8966    4.8764 H   0  0  0  0  0  0  0  0  0  0  0  0
   10.8459  -24.3445    3.7175 H   0  0  0  0  0  0  0  0  0  0  0  0
   12.8645  -25.8406    2.2452 H   0  0  0  0  0  0  0  0  0  0  0  0
   14.1256  -24.5941    5.0207 H   0  0  0  0  0  0  0  0  0  0  0  0
   14.9862  -24.7689    3.4994 H   0  0  0  0  0  0  0  0  0  0  0  0
   14.5374  -26.9306    5.2347 H   0  0  0  0  0  0  0  0  0  0  0  0
   14.9763  -27.0352    3.5613 H   0  0  0  0  0  0  0  0  0  0  0  0
   12.5444  -27.8640    4.6288 H   0  0  0  0  0  0  0  0  0  0  0  0
   11.5039  -22.9056    1.6301 H   0  0  0  0  0  0  0  0  0  0  0  0
   12.4127  -24.1510    0.7941 H   0  0  0  0  0  0  0  0  0  0  0  0
    9.6570  -23.7751    2.0756 H   0  0  0  0  0  0  0  0  0  0  0  0
    8.6253  -25.3495    0.3584 H   0  0  0  0  0  0  0  0  0  0  0  0
   10.0132  -25.0294   -0.6932 H   0  0  0  0  0  0  0  0  0  0  0  0
    8.5318  -22.9667    0.8041 H   0  0  0  0  0  0  0  0  0  0  0  0
    8.5842  -23.4080   -2.0819 H   0  0  0  0  0  0  0  0  0  0  0  0
    7.3653  -24.1550   -1.0358 H   0  0  0  0  0  0  0  0  0  0  0  0
    8.5313  -20.6760   -2.3334 H   0  0  0  0  0  0  0  0  0  0  0  0
    6.4691  -18.9054   -1.9055 H   0  0  0  0  0  0  0  0  0  0  0  0
    4.6450  -20.3162   -0.4059 H   0  0  0  0  0  0  0  0  0  0  0  0
    9.8109  -26.7008    2.0736 H   0  0  0  0  0  0  0  0  0  0  0  0
    9.3792  -25.4106    3.1621 H   0  0  0  0  0  0  0  0  0  0  0  0
  1  2  1  0
  2  3  1  0
  3  4  1  0
  4  5  1  0
  5  6  1  0
  6  7  1  0
  4  8  1  0
  8  9  1  0
  9 10  1  0
 10 11  1  0
 11 12  1  0
 12 13  1  0
 13 14  4  0
 14 15  4  0
 15 16  4  0
 16 17  4  0
  9 18  1  0
  7  2  1  0
 17 13  4  0
 18  2  1  0
  3 19  1  0
  3 20  1  0
  4 21  1  0
  5 22  1  0
  5 23  1  0
  6 24  1  0
  6 25  1  0
  7 26  1  0
  8 27  1  0
  8 28  1  0
  9 29  1  0
 10 30  1  0
 10 31  1  0
 11 32  1  0
 12 33  1  0
 12 34  1  0
 14 35  1  0
 15 36  1  0
 16 37  1  0
 18 38  1  0
 18 39  1  0
M  END
