
     RDKit          3D

 38 39  0  0  0  0  0  0  0  0999 V2000
   22.7610   -6.3200    4.0380 O   0  0  0  0  0  0  0  0  0  0  0  0
   23.2420   -7.0460    5.1080 C   0  0  0  0  0  0  0  0  0  0  0  0
   22.4150   -8.1210    5.5720 C   0  0  0  0  0  0  0  0  0  0  0  0
   23.0420   -9.3530    5.3060 C   0  0  0  0  0  0  0  0  0  0  0  0
   24.5400   -9.3350    5.1610 C   0  0  1  0  0  0  0  0  0  0  0  0
   25.0890  -10.2580    3.7070 S   0  0  0  0  0  0  0  0  0  0  0  0
   26.7820  -10.5640    4.2720 C   0  0  0  0  0  0  0  0  0  0  0  0
   26.8510  -10.4290    5.6390 C   0  0  0  0  0  0  0  0  0  0  0  0
   27.8880  -11.3790    6.0420 N   0  0  0  0  0  0  0  0  0  0  0  0
   28.2950  -11.0340    7.4120 C   0  0  0  0  0  0  0  0  0  0  0  0
   27.6130  -11.8010    8.3740 C   0  0  0  0  0  0  0  0  0  0  0  0
   27.7230  -13.0040    8.2170 O   0  0  0  0  0  0  0  0  0  0  0  0
   26.9890  -13.4290    7.0760 C   0  0  0  0  0  0  0  0  0  0  0  0
   27.4570  -12.6900    5.8220 C   0  0  0  0  0  0  0  0  0  0  0  0
   25.1550   -7.9140    5.0500 C   0  0  1  0  0  0  0  0  0  0  0  0
   25.2700   -7.5870    3.6560 O   0  0  0  0  0  0  0  0  0  0  0  0
   24.4500   -6.9170    5.6870 C   0  0  0  0  0  0  0  0  0  0  0  0
   21.4560   -8.0710    5.0770 H   0  0  0  0  0  0  0  0  0  0  0  0
   22.2370   -7.9370    6.6170 H   0  0  0  0  0  0  0  0  0  0  0  0
   22.8210  -10.0510    6.0790 H   0  0  0  0  0  0  0  0  0  0  0  0
   22.6860   -9.9330    4.5220 H   0  0  0  0  0  0  0  0  0  0  0  0
   25.0830   -9.7930    5.9790 H   0  0  0  0  0  0  0  0  0  0  0  0
   27.0750  -11.5030    3.8170 H   0  0  0  0  0  0  0  0  0  0  0  0
   27.3800   -9.8770    3.6760 H   0  0  0  0  0  0  0  0  0  0  0  0
   25.9100  -10.8450    6.0200 H   0  0  0  0  0  0  0  0  0  0  0  0
   26.9740   -9.5000    6.1830 H   0  0  0  0  0  0  0  0  0  0  0  0
   29.3830  -11.1140    7.4460 H   0  0  0  0  0  0  0  0  0  0  0  0
   28.0650   -9.9690    7.4660 H   0  0  0  0  0  0  0  0  0  0  0  0
   26.5380  -11.6390    8.4520 H   0  0  0  0  0  0  0  0  0  0  0  0
   27.9560  -11.6100    9.3970 H   0  0  0  0  0  0  0  0  0  0  0  0
   25.9430  -13.1300    7.2220 H   0  0  0  0  0  0  0  0  0  0  0  0
   27.0250  -14.5190    7.0720 H   0  0  0  0  0  0  0  0  0  0  0  0
   28.2150  -13.1830    5.2170 H   0  0  0  0  0  0  0  0  0  0  0  0
   26.5710  -12.6460    5.1790 H   0  0  0  0  0  0  0  0  0  0  0  0
   26.1690   -7.9200    5.4440 H   0  0  0  0  0  0  0  0  0  0  0  0
   24.7810   -8.2750    3.1640 H   0  0  0  0  0  0  0  0  0  0  0  0
   24.8510   -5.9330    5.4080 H   0  0  0  0  0  0  0  0  0  0  0  0
   24.3370   -6.9630    6.7650 H   0  0  0  0  0  0  0  0  0  0  0  0
  1  2  2  0
  2  3  1  0
  3  4  1  0
  4  5  1  0
  5  6  1  0
  6  7  1  0
  7  8  1  0
  8  9  1  0
  9 10  1  0
 10 11  1  0
 11 12  1  0
 12 13  1  0
  9 14  1  0
 13 14  1  0
  5 15  1  0
 15 16  1  0
  2 17  1  0
 15 17  1  0
  3 18  1  0
  3 19  1  0
  4 20  1  0
  4 21  1  0
  5 22  1  1
  7 23  1  0
  7 24  1  0
  8 25  1  0
  8 26  1  0
 10 27  1  0
 10 28  1  0
 11 29  1  0
 11 30  1  0
 13 31  1  0
 13 32  1  0
 14 33  1  0
 14 34  1  0
 15 35  1  1
 16 36  1  0
 17 37  1  0
 17 38  1  0
M  END
