LIG
     RDKit          3D

 54 57  0  0  0  0  0  0  0  0999 V2000
    9.6545    1.3145   21.1730 O   0  0  0  0  0  0  0  0  0  0  0  0
    9.3080    0.4380   21.8275 C   0  0  0  0  0  0  0  0  0  0  0  0
    7.6120   -0.2560   21.3260 N   0  0  0  0  0  0  0  0  0  0  0  0
    7.0000    0.1710   20.1090 C   0  0  0  0  0  0  0  0  0  0  0  0
    5.7560    0.7730   20.2490 C   0  0  0  0  0  0  0  0  0  0  0  0
    5.1420    1.2080   19.0830 C   0  0  0  0  0  0  0  0  0  0  0  0
    5.8050    1.0240   17.8770 C   0  0  0  0  0  0  0  0  0  0  0  0
    7.0000    0.4540   17.8140 N   0  0  0  0  0  0  0  0  0  0  0  0
    7.6260    0.0260   18.8870 C   0  0  0  0  0  0  0  0  0  0  0  0
    9.4965   -0.3695   22.8935 C   0  0  0  0  0  0  0  0  0  0  0  0
    8.7046   -1.0924   23.4838 C   0  0  0  0  0  0  0  0  0  0  0  0
    9.0219   -1.9471   24.6103 C   0  0  0  0  0  0  0  0  0  0  0  0
    9.8739   -1.7045   25.6330 C   0  0  0  0  0  0  0  0  0  0  0  0
   10.0667   -2.6582   26.6540 N   0  0  0  0  0  0  0  0  0  0  0  0
   10.4232   -2.2710   28.0355 C   0  0  0  0  0  0  0  0  0  0  0  0
   10.1291   -3.3546   29.0716 C   0  0  0  0  0  0  0  0  0  0  0  0
   11.0322   -4.5858   28.9924 C   0  0  0  0  0  0  0  0  0  0  0  0
   12.0965   -4.4157   28.0687 O   0  0  0  0  0  0  0  0  0  0  0  0
   11.7195   -4.5649   26.6941 C   0  0  0  0  0  0  0  0  0  0  0  0
   10.3117   -4.0777   26.3028 C   0  0  0  0  0  0  0  0  0  0  0  0
   10.5970   -0.4339   25.7365 C   0  0  0  0  0  0  0  0  0  0  0  0
   10.8815   -1.3875   22.2165 C   0  0  0  0  0  0  0  0  0  0  0  0
   12.8180   -1.7130   22.6470 C   0  0  0  0  0  0  0  0  0  0  0  0
   13.6100   -0.8590   23.6290 C   0  0  0  0  0  0  0  0  0  0  0  0
   12.7710   -0.1530   24.6900 C   0  0  0  0  0  0  0  0  0  0  0  0
   11.2810   -0.4020   24.5270 C   0  0  0  0  0  0  0  0  0  0  0  0
   10.9230   -0.0800   23.0900 C   0  0  0  0  0  0  0  0  0  0  0  0
    7.3758   -0.8090   21.9938 H   0  0  0  0  0  0  0  0  0  0  0  0
    5.2717    0.9092   21.1872 H   0  0  0  0  0  0  0  0  0  0  0  0
    4.1669    1.6815   19.1075 H   0  0  0  0  0  0  0  0  0  0  0  0
    5.3664    1.3412   16.9453 H   0  0  0  0  0  0  0  0  0  0  0  0
    8.5738   -0.4065   18.7624 H   0  0  0  0  0  0  0  0  0  0  0  0
    7.6811   -1.1689   23.1203 H   0  0  0  0  0  0  0  0  0  0  0  0
    8.4537   -2.8752   24.6178 H   0  0  0  0  0  0  0  0  0  0  0  0
   11.4752   -1.9640   28.0843 H   0  0  0  0  0  0  0  0  0  0  0  0
    9.8213   -1.3978   28.3184 H   0  0  0  0  0  0  0  0  0  0  0  0
   10.2478   -2.9123   30.0694 H   0  0  0  0  0  0  0  0  0  0  0  0
    9.0792   -3.6684   29.0179 H   0  0  0  0  0  0  0  0  0  0  0  0
   10.4624   -5.4924   28.7559 H   0  0  0  0  0  0  0  0  0  0  0  0
   11.4825   -4.7594   29.9762 H   0  0  0  0  0  0  0  0  0  0  0  0
   12.4716   -4.0303   26.1034 H   0  0  0  0  0  0  0  0  0  0  0  0
   11.8109   -5.6278   26.4433 H   0  0  0  0  0  0  0  0  0  0  0  0
   10.2002   -4.2468   25.2251 H   0  0  0  0  0  0  0  0  0  0  0  0
    9.5395   -4.6915   26.7801 H   0  0  0  0  0  0  0  0  0  0  0  0
   10.7119   -0.0391   26.7415 H   0  0  0  0  0  0  0  0  0  0  0  0
   12.7061   -2.7977   22.9152 H   0  0  0  0  0  0  0  0  0  0  0  0
   13.2279   -1.7491   21.6093 H   0  0  0  0  0  0  0  0  0  0  0  0
   14.1907   -0.1012   23.0744 H   0  0  0  0  0  0  0  0  0  0  0  0
   14.3652   -1.4948   24.1218 H   0  0  0  0  0  0  0  0  0  0  0  0
   13.0953   -0.4706   25.6893 H   0  0  0  0  0  0  0  0  0  0  0  0
   12.9645    0.9273   24.6386 H   0  0  0  0  0  0  0  0  0  0  0  0
   11.0658   -1.4348   24.7800 H   0  0  0  0  0  0  0  0  0  0  0  0
   10.7405    0.2414   25.2123 H   0  0  0  0  0  0  0  0  0  0  0  0
   11.2300    0.6280   22.6352 H   0  0  0  0  0  0  0  0  0  0  0  0
  1  2  2  0
  2  3  1  0
  3  4  1  0
  4  5  4  0
  5  6  4  0
  6  7  4  0
  7  8  4  0
  8  9  4  0
  2 10  1  0
 10 11  2  0
 11 12  1  0
 12 13  2  0
 13 14  1  0
 14 15  1  0
 15 16  1  0
 16 17  1  0
 17 18  1  0
 18 19  1  0
 19 20  1  0
 13 21  1  0
 21 22  2  0
 22 23  1  0
 23 24  1  0
 24 25  1  0
 25 26  1  0
 26 27  1  0
  9  4  4  0
 27 10  1  0
 20 14  1  0
 27 22  1  0
  3 28  1  0
  5 29  1  0
  6 30  1  0
  7 31  1  0
  9 32  1  0
 11 33  1  0
 12 34  1  0
 15 35  1  0
 15 36  1  0
 16 37  1  0
 16 38  1  0
 17 39  1  0
 17 40  1  0
 19 41  1  0
 19 42  1  0
 20 43  1  0
 20 44  1  0
 21 45  1  0
 23 46  1  0
 23 47  1  0
 24 48  1  0
 24 49  1  0
 25 50  1  0
 25 51  1  0
 26 52  1  0
 26 53  1  0
 27 54  1  0
M  END
