
     RDKit          3D

 54 57  0  0  0  0  0  0  0  0999 V2000
    9.1770    2.0140   21.3670 O   0  0  0  0  0  0  0  0  0  0  0  0
    8.4180    0.9050   21.8200 C   0  0  0  0  0  0  0  0  0  0  0  0
    6.9990    1.0040   21.7800 N   0  0  0  0  0  0  0  0  0  0  0  0
    6.5210    0.8860   20.4220 C   0  0  0  0  0  0  0  0  0  0  0  0
    5.4330    1.6910   20.2230 C   0  0  0  0  0  0  0  0  0  0  0  0
    4.6990    1.8130   18.9210 C   0  0  0  0  0  0  0  0  0  0  0  0
    5.2510    0.9780   17.8290 C   0  0  0  0  0  0  0  0  0  0  0  0
    6.4330    0.1180   18.0940 N   0  0  0  0  0  0  0  0  0  0  0  0
    7.0550    0.0820   19.4100 C   0  0  0  0  0  0  0  0  0  0  0  0
    8.9860   -0.4060   22.3250 C   0  0  0  0  0  0  0  0  0  0  0  0
    7.7320   -1.1920   22.5310 C   0  0  0  0  0  0  0  0  0  0  0  0
    7.4240   -2.6320   23.0050 C   0  0  0  0  0  0  0  0  0  0  0  0
    8.7060   -3.3280   23.1880 C   0  0  0  0  0  0  0  0  0  0  0  0
    8.6970   -4.7210   23.6610 N   0  0  0  0  0  0  0  0  0  0  0  0
    8.9450   -5.0070   25.0420 C   0  0  0  0  0  0  0  0  0  0  0  0
    8.1750   -4.2960   25.9590 C   0  0  0  0  0  0  0  0  0  0  0  0
    6.7940   -4.4620   25.8960 C   0  0  0  0  0  0  0  0  0  0  0  0
    6.5760   -5.5280   25.3360 O   0  0  0  0  0  0  0  0  0  0  0  0
    6.4700   -5.4710   23.9060 C   0  0  0  0  0  0  0  0  0  0  0  0
    7.6790   -5.5840   23.1940 C   0  0  0  0  0  0  0  0  0  0  0  0
    9.6030   -2.2920   22.8480 C   0  0  0  0  0  0  0  0  0  0  0  0
   10.7820   -1.8170   22.4350 C   0  0  0  0  0  0  0  0  0  0  0  0
   12.0530   -2.1950   22.0420 C   0  0  0  0  0  0  0  0  0  0  0  0
   13.0330   -1.1910   22.3420 C   0  0  0  0  0  0  0  0  0  0  0  0
   12.7010    0.0050   23.2590 C   0  0  0  0  0  0  0  0  0  0  0  0
   11.1750    0.1180   23.5120 C   0  0  0  0  0  0  0  0  0  0  0  0
   10.5230   -0.5530   22.4460 C   0  0  2  0  0  0  0  0  0  0  0  0
    6.6820    1.8350   22.2850 H   0  0  0  0  0  0  0  0  0  0  0  0
    5.0700    2.2920   21.0670 H   0  0  0  0  0  0  0  0  0  0  0  0
    3.8380    2.4580   18.7850 H   0  0  0  0  0  0  0  0  0  0  0  0
    4.8300    0.9690   16.8600 H   0  0  0  0  0  0  0  0  0  0  0  0
    7.9100   -0.5750   19.5340 H   0  0  0  0  0  0  0  0  0  0  0  0
    6.7650   -0.7240   22.3200 H   0  0  0  0  0  0  0  0  0  0  0  0
    6.4360   -3.0480   23.1710 H   0  0  0  0  0  0  0  0  0  0  0  0
    8.7360   -6.0700   25.1820 H   0  0  0  0  0  0  0  0  0  0  0  0
   10.0260   -4.9720   25.1850 H   0  0  0  0  0  0  0  0  0  0  0  0
    8.5040   -4.7980   26.8780 H   0  0  0  0  0  0  0  0  0  0  0  0
    8.5050   -3.2710   26.1100 H   0  0  0  0  0  0  0  0  0  0  0  0
    6.2420   -3.6870   25.3710 H   0  0  0  0  0  0  0  0  0  0  0  0
    6.2950   -4.5490   26.8570 H   0  0  0  0  0  0  0  0  0  0  0  0
    5.8350   -6.3210   23.6300 H   0  0  0  0  0  0  0  0  0  0  0  0
    5.8630   -4.5850   23.6950 H   0  0  0  0  0  0  0  0  0  0  0  0
    8.0410   -6.6130   23.2630 H   0  0  0  0  0  0  0  0  0  0  0  0
    7.5210   -5.3850   22.1300 H   0  0  0  0  0  0  0  0  0  0  0  0
    9.0010   -1.4080   23.0050 H   0  0  0  0  0  0  0  0  0  0  0  0
   12.3140   -3.1390   22.4360 H   0  0  0  0  0  0  0  0  0  0  0  0
   11.9180   -2.4620   20.9710 H   0  0  0  0  0  0  0  0  0  0  0  0
   13.4730   -0.9040   21.3810 H   0  0  0  0  0  0  0  0  0  0  0  0
   13.8430   -1.6880   22.8780 H   0  0  0  0  0  0  0  0  0  0  0  0
   13.1410   -0.0930   24.2510 H   0  0  0  0  0  0  0  0  0  0  0  0
   13.1320    0.9400   22.9160 H   0  0  0  0  0  0  0  0  0  0  0  0
   10.8160   -0.2320   24.4550 H   0  0  0  0  0  0  0  0  0  0  0  0
   10.9210    1.1800   23.4300 H   0  0  0  0  0  0  0  0  0  0  0  0
   10.8750   -0.1800   21.5320 H   0  0  0  0  0  0  0  0  0  0  0  0
  1  2  2  0
  2  3  1  0
  3  4  1  0
  4  5  2  0
  5  6  1  0
  6  7  2  0
  7  8  1  0
  4  9  1  0
  8  9  2  0
  2 10  1  0
 10 11  2  0
 11 12  1  0
 12 13  2  0
 13 14  1  0
 14 15  1  0
 15 16  1  0
 16 17  1  0
 17 18  1  0
 18 19  1  0
 14 20  1  0
 19 20  1  0
 13 21  1  0
 21 22  2  0
 22 23  1  0
 23 24  1  0
 24 25  1  0
 25 26  1  0
 10 27  1  0
 22 27  1  0
 26 27  1  0
  3 28  1  0
  5 29  1  0
  6 30  1  0
  7 31  1  0
  9 32  1  0
 11 33  1  0
 12 34  1  0
 15 35  1  0
 15 36  1  0
 16 37  1  0
 16 38  1  0
 17 39  1  0
 17 40  1  0
 19 41  1  0
 19 42  1  0
 20 43  1  0
 20 44  1  0
 21 45  1  0
 23 46  1  0
 23 47  1  0
 24 48  1  0
 24 49  1  0
 25 50  1  0
 25 51  1  0
 26 52  1  0
 26 53  1  0
 27 54  1  6
M  END
