
     RDKit          3D

 53 56  0  0  0  0  0  0  0  0999 V2000
    3.4360    2.2900   19.4660 C   0  0  0  0  0  0  0  0  0  0  0  0
    4.5350    1.4210   18.9400 C   0  0  0  0  0  0  0  0  0  0  0  0
    4.9220    0.2150   19.4470 C   0  0  0  0  0  0  0  0  0  0  0  0
    6.0340   -0.2530   18.5940 C   0  0  0  0  0  0  0  0  0  0  0  0
    6.6900   -1.5420   18.8680 C   0  0  0  0  0  0  0  0  0  0  0  0
    6.4690   -1.9710   20.2470 N   0  0  0  0  0  0  0  0  0  0  0  0
    7.6790   -1.7760   21.0680 C   0  0  0  0  0  0  0  0  0  0  0  0
    5.8380   -3.2480   20.6370 C   0  0  0  0  0  0  0  0  0  0  0  0
    5.3620   -4.0280   19.8050 O   0  0  0  0  0  0  0  0  0  0  0  0
    5.8150   -3.5200   21.7880 N   0  0  0  0  0  0  0  0  0  0  0  0
    6.4930   -4.6610   22.1440 C   0  0  2  0  0  0  0  0  0  0  0  0
    5.8750   -5.7980   22.7270 C   0  0  0  0  0  0  0  0  0  0  0  0
    6.7500   -5.1830   23.7110 C   0  0  1  0  0  0  0  0  0  0  0  0
    8.0820   -5.5050   23.8270 C   0  0  0  0  0  0  0  0  0  0  0  0
    8.7860   -5.2470   25.0000 C   0  0  0  0  0  0  0  0  0  0  0  0
    8.7090   -3.9150   25.3680 N   0  0  0  0  0  0  0  0  0  0  0  0
    8.8100   -2.7720   24.4350 C   0  0  0  0  0  0  0  0  0  0  0  0
    8.0940   -1.6300   24.6780 C   0  0  0  0  0  0  0  0  0  0  0  0
    8.1860   -0.5150   23.8600 C   0  0  0  0  0  0  0  0  0  0  0  0
    9.0930   -0.5200   22.6730 C   0  0  0  0  0  0  0  0  0  0  0  0
    9.1600    0.6360   21.9350 C   0  0  0  0  0  0  0  0  0  0  0  0
    9.1570    1.6600   21.4100 N   0  0  0  0  0  0  0  0  0  0  0  0
    9.8140   -1.6070   22.3470 N   0  0  0  0  0  0  0  0  0  0  0  0
    9.6340   -2.7360   23.2660 C   0  0  0  0  0  0  0  0  0  0  0  0
    7.7590   -3.8560   26.3170 C   0  0  0  0  0  0  0  0  0  0  0  0
    6.5690   -4.7540   26.0130 C   0  0  0  0  0  0  0  0  0  0  0  0
    6.2270   -4.5170   24.6310 O   0  0  0  0  0  0  0  0  0  0  0  0
    6.2570    0.6600   17.6430 N   0  0  0  0  0  0  0  0  0  0  0  0
    5.3320    1.7000   17.8580 O   0  0  0  0  0  0  0  0  0  0  0  0
    3.8270    3.1180   20.0640 H   0  0  0  0  0  0  0  0  0  0  0  0
    2.8810    2.7130   18.6240 H   0  0  0  0  0  0  0  0  0  0  0  0
    2.7660    1.6850   20.0840 H   0  0  0  0  0  0  0  0  0  0  0  0
    4.5080   -0.3110   20.3020 H   0  0  0  0  0  0  0  0  0  0  0  0
    7.7550   -1.4020   18.6470 H   0  0  0  0  0  0  0  0  0  0  0  0
    6.2970   -2.2490   18.1430 H   0  0  0  0  0  0  0  0  0  0  0  0
    8.0970   -2.7550   21.3260 H   0  0  0  0  0  0  0  0  0  0  0  0
    8.4190   -1.2240   20.4790 H   0  0  0  0  0  0  0  0  0  0  0  0
    7.4870   -1.2280   21.9770 H   0  0  0  0  0  0  0  0  0  0  0  0
    5.7270   -2.8300   22.5260 H   0  0  0  0  0  0  0  0  0  0  0  0
    7.3130   -4.8450   21.4570 H   0  0  0  0  0  0  0  0  0  0  0  0
    6.2940   -6.7340   22.3350 H   0  0  0  0  0  0  0  0  0  0  0  0
    4.8050   -5.8810   22.9230 H   0  0  0  0  0  0  0  0  0  0  0  0
    8.1700   -6.5730   23.6440 H   0  0  0  0  0  0  0  0  0  0  0  0
    8.6530   -4.9870   23.0690 H   0  0  0  0  0  0  0  0  0  0  0  0
    9.8420   -5.4720   24.8860 H   0  0  0  0  0  0  0  0  0  0  0  0
    8.5060   -5.8850   25.8460 H   0  0  0  0  0  0  0  0  0  0  0  0
    7.4580   -1.6740   25.5680 H   0  0  0  0  0  0  0  0  0  0  0  0
    7.5970    0.3770   24.1010 H   0  0  0  0  0  0  0  0  0  0  0  0
   10.2370   -3.6170   22.9910 H   0  0  0  0  0  0  0  0  0  0  0  0
    7.5410   -2.8020   26.5130 H   0  0  0  0  0  0  0  0  0  0  0  0
    8.1890   -4.2710   27.2360 H   0  0  0  0  0  0  0  0  0  0  0  0
    5.6500   -4.5110   26.5600 H   0  0  0  0  0  0  0  0  0  0  0  0
    6.7080   -5.8190   26.1700 H   0  0  0  0  0  0  0  0  0  0  0  0
  1  2  1  0
  2  3  2  0
  3  4  1  0
  4  5  1  0
  5  6  1  0
  6  7  1  0
  6  8  1  0
  8  9  2  0
  8 10  1  0
 10 11  1  0
 11 12  1  0
 11 13  1  0
 12 13  1  0
 13 14  1  0
 14 15  1  0
 15 16  1  0
 16 17  1  0
 17 18  2  0
 18 19  1  0
 19 20  2  0
 20 21  1  0
 21 22  3  0
 20 23  1  0
 17 24  1  0
 23 24  2  0
 16 25  1  0
 25 26  1  0
 13 27  1  1
 26 27  1  0
  4 28  2  0
  2 29  1  0
 28 29  1  0
  1 30  1  0
  1 31  1  0
  1 32  1  0
  3 33  1  0
  5 34  1  0
  5 35  1  0
  7 36  1  0
  7 37  1  0
  7 38  1  0
 10 39  1  0
 11 40  1  6
 12 41  1  0
 12 42  1  0
 14 43  1  0
 14 44  1  0
 15 45  1  0
 15 46  1  0
 18 47  1  0
 19 48  1  0
 24 49  1  0
 25 50  1  0
 25 51  1  0
 26 52  1  0
 26 53  1  0
M  END
