LIG
     RDKit          3D

 53 56  0  0  0  0  0  0  0  0999 V2000
    3.8620    2.0560   19.5360 C   0  0  0  0  0  0  0  0  0  0  0  0
    4.9620    1.2370   18.8590 C   0  0  0  0  0  0  0  0  0  0  0  0
    5.4660    0.0450   19.3030 C   0  0  0  0  0  0  0  0  0  0  0  0
    6.4430   -0.3560   18.3950 C   0  0  0  0  0  0  0  0  0  0  0  0
    7.2860   -1.6460   18.4960 C   0  0  0  0  0  0  0  0  0  0  0  0
    7.3620   -2.0310   19.9170 N   0  0  0  0  0  0  0  0  0  0  0  0
    8.3210   -1.3510   20.7970 C   0  0  0  0  0  0  0  0  0  0  0  0
    6.4780   -3.0650   20.4600 C   0  0  0  0  0  0  0  0  0  0  0  0
    5.7050   -3.6090   19.7340 O   0  0  0  0  0  0  0  0  0  0  0  0
    6.5520   -3.4250   21.8840 N   0  0  0  0  0  0  0  0  0  0  0  0
    5.6750   -4.4640   22.4420 C   0  0  0  0  0  0  0  0  0  0  0  0
    5.9460   -5.8890   21.9520 C   0  0  0  0  0  0  0  0  0  0  0  0
    6.9045   -5.5290   23.7040 C   0  0  0  0  0  0  0  0  0  0  0  0
    8.9080   -5.8040   23.6240 C   0  0  0  0  0  0  0  0  0  0  0  0
    9.8940   -5.2910   24.6800 C   0  0  0  0  0  0  0  0  0  0  0  0
    9.5290   -3.9700   25.2640 N   0  0  0  0  0  0  0  0  0  0  0  0
    9.4490   -2.7910   24.4310 C   0  0  0  0  0  0  0  0  0  0  0  0
    8.8070   -1.5850   24.7810 C   0  0  0  0  0  0  0  0  0  0  0  0
    8.8780   -0.4790   23.9400 C   0  0  0  0  0  0  0  0  0  0  0  0
    9.5840   -0.5840   22.7540 C   0  0  0  0  0  0  0  0  0  0  0  0
    9.7510    0.5640   21.9590 C   0  0  0  0  0  0  0  0  0  0  0  0
    9.8900    1.5270   21.3460 N   0  0  0  0  0  0  0  0  0  0  0  0
   10.2010   -1.7280   22.3370 N   0  0  0  0  0  0  0  0  0  0  0  0
   10.1230   -2.7850   23.1640 C   0  0  0  0  0  0  0  0  0  0  0  0
    8.7010   -4.0730   26.4970 C   0  0  0  0  0  0  0  0  0  0  0  0
    7.2860   -4.6680   26.2770 C   0  0  0  0  0  0  0  0  0  0  0  0
    7.3000   -5.8000   25.4420 O   0  0  0  0  0  0  0  0  0  0  0  0
    6.5230    0.5870   17.4450 N   0  0  0  0  0  0  0  0  0  0  0  0
    5.6020    1.5440   17.7420 O   0  0  0  0  0  0  0  0  0  0  0  0
    4.0623    3.1130   19.3976 H   0  0  0  0  0  0  0  0  0  0  0  0
    2.9008    1.8117   19.0967 H   0  0  0  0  0  0  0  0  0  0  0  0
    3.8505    1.8228   20.5950 H   0  0  0  0  0  0  0  0  0  0  0  0
    5.1309   -0.4905   20.2089 H   0  0  0  0  0  0  0  0  0  0  0  0
    8.2777   -1.4660   18.1075 H   0  0  0  0  0  0  0  0  0  0  0  0
    6.8159   -2.4318   17.9224 H   0  0  0  0  0  0  0  0  0  0  0  0
    9.3002   -1.8100   20.6557 H   0  0  0  0  0  0  0  0  0  0  0  0
    8.3630   -0.2976   20.5182 H   0  0  0  0  0  0  0  0  0  0  0  0
    8.0379   -1.4289   21.8456 H   0  0  0  0  0  0  0  0  0  0  0  0
    7.4807   -3.3942   22.2463 H   0  0  0  0  0  0  0  0  0  0  0  0
    7.5212   -4.7911   21.5361 H   0  0  0  0  0  0  0  0  0  0  0  0
    6.6917   -6.0234   21.2371 H   0  0  0  0  0  0  0  0  0  0  0  0
    5.2263   -6.6109   22.1253 H   0  0  0  0  0  0  0  0  0  0  0  0
    8.8865   -6.9083   23.4539 H   0  0  0  0  0  0  0  0  0  0  0  0
    9.0598   -5.3818   22.6035 H   0  0  0  0  0  0  0  0  0  0  0  0
   10.9290   -5.2511   24.2765 H   0  0  0  0  0  0  0  0  0  0  0  0
    9.9318   -6.0630   25.4775 H   0  0  0  0  0  0  0  0  0  0  0  0
    8.2317   -1.5075   25.6958 H   0  0  0  0  0  0  0  0  0  0  0  0
    8.3786    0.4517   24.2151 H   0  0  0  0  0  0  0  0  0  0  0  0
   10.6253   -3.6804   22.8307 H   0  0  0  0  0  0  0  0  0  0  0  0
    8.5981   -3.0748   26.9626 H   0  0  0  0  0  0  0  0  0  0  0  0
    9.2176   -4.7281   27.2223 H   0  0  0  0  0  0  0  0  0  0  0  0
    6.6651   -3.9018   25.7746 H   0  0  0  0  0  0  0  0  0  0  0  0
    6.7793   -4.8763   27.2443 H   0  0  0  0  0  0  0  0  0  0  0  0
  1  2  1  0
  2  3  4  0
  3  4  4  0
  4  5  1  0
  5  6  1  0
  6  7  1  0
  6  8  1  0
  8  9  2  0
  8 10  1  0
 10 11  1  0
 11 12  1  0
 12 13  1  0
 13 14  1  0
 14 15  1  0
 15 16  1  0
 16 17  1  0
 17 18  4  0
 18 19  4  0
 19 20  4  0
 20 21  1  0
 21 22  3  0
 20 23  4  0
 23 24  4  0
 16 25  1  0
 25 26  1  0
 26 27  1  0
  4 28  4  0
 28 29  4  0
 29  2  4  0
 13 11  1  0
 24 17  4  0
 27 13  1  0
  1 30  1  0
  1 31  1  0
  1 32  1  0
  3 33  1  0
  5 34  1  0
  5 35  1  0
  7 36  1  0
  7 37  1  0
  7 38  1  0
 10 39  1  0
 11 40  1  0
 12 41  1  0
 12 42  1  0
 14 43  1  0
 14 44  1  0
 15 45  1  0
 15 46  1  0
 18 47  1  0
 19 48  1  0
 24 49  1  0
 25 50  1  0
 25 51  1  0
 26 52  1  0
 26 53  1  0
M  END
