
     RDKit          3D

 47 50  0  0  0  0  0  0  0  0999 V2000
    7.7980   -0.7280   25.9720 C   0  0  0  0  0  0  0  0  0  0  0  0
    8.8630   -0.8170   24.8980 C   0  0  2  0  0  0  0  0  0  0  0  0
    8.7150   -0.0780   23.7530 C   0  0  0  0  0  0  0  0  0  0  0  0
   10.0890   -0.0020   23.1270 C   0  0  1  0  0  0  0  0  0  0  0  0
   10.3420    1.3210   22.5130 C   0  0  0  0  0  0  0  0  0  0  0  0
    9.2090    1.7580   21.7020 N   0  0  0  0  0  0  0  0  0  0  0  0
   10.9410   -0.2930   24.3680 C   0  0  1  0  0  0  0  0  0  0  0  0
   12.0930    0.3580   24.2930 N   0  0  0  0  0  0  0  0  0  0  0  0
   12.5090   -0.2520   23.1280 C   0  0  0  0  0  0  0  0  0  0  0  0
   11.8310   -1.4210   22.6040 C   0  0  2  0  0  0  0  0  0  0  0  0
   12.4270   -2.0510   21.3670 C   0  0  0  0  0  0  0  0  0  0  0  0
   13.6060   -1.5250   20.9030 N   0  0  0  0  0  0  0  0  0  0  0  0
   10.4710   -1.1710   22.3550 N   0  0  0  0  0  0  0  0  0  0  0  0
    9.6620   -2.2170   22.8920 C   0  0  0  0  0  0  0  0  0  0  0  0
    9.1750   -2.2250   24.2510 C   0  0  2  0  0  0  0  0  0  0  0  0
    8.2820   -3.2320   24.5650 N   0  0  0  0  0  0  0  0  0  0  0  0
    8.3620   -4.2620   23.7710 C   0  0  0  0  0  0  0  0  0  0  0  0
    7.3300   -4.6980   22.9920 C   0  0  0  0  0  0  0  0  0  0  0  0
    6.6190   -5.6730   23.6160 C   0  0  0  0  0  0  0  0  0  0  0  0
    6.6490   -5.4590   25.0090 O   0  0  0  0  0  0  0  0  0  0  0  0
    6.1610   -4.1670   25.3890 C   0  0  0  0  0  0  0  0  0  0  0  0
    7.0710   -2.9350   25.1120 C   0  0  0  0  0  0  0  0  0  0  0  0
   10.0490   -0.0890   25.4660 N   0  0  0  0  0  0  0  0  0  0  0  0
    6.9920   -0.0470   25.6850 H   0  0  0  0  0  0  0  0  0  0  0  0
    7.3630   -1.7100   26.1480 H   0  0  0  0  0  0  0  0  0  0  0  0
    8.2570   -0.3600   26.8940 H   0  0  0  0  0  0  0  0  0  0  0  0
    8.2060    0.8760   23.8520 H   0  0  0  0  0  0  0  0  0  0  0  0
    8.0730   -0.6300   23.0570 H   0  0  0  0  0  0  0  0  0  0  0  0
   11.1970   -1.3580   24.3840 H   0  0  0  0  0  0  0  0  0  0  0  0
   12.0260    1.3650   24.2820 H   0  0  0  0  0  0  0  0  0  0  0  0
   12.5840    0.6160   22.4770 H   0  0  0  0  0  0  0  0  0  0  0  0
   13.5400   -0.5620   23.3200 H   0  0  0  0  0  0  0  0  0  0  0  0
   11.7640   -2.1490   23.4110 H   0  0  0  0  0  0  0  0  0  0  0  0
    8.7740   -2.3020   22.2630 H   0  0  0  0  0  0  0  0  0  0  0  0
   10.2400   -3.0960   22.6460 H   0  0  0  0  0  0  0  0  0  0  0  0
   10.0390   -2.5120   24.8270 H   0  0  0  0  0  0  0  0  0  0  0  0
    9.2470   -3.9910   23.2400 H   0  0  0  0  0  0  0  0  0  0  0  0
    8.6000   -5.1230   24.3750 H   0  0  0  0  0  0  0  0  0  0  0  0
    7.6450   -5.1670   22.0640 H   0  0  0  0  0  0  0  0  0  0  0  0
    6.6980   -3.8920   22.6160 H   0  0  0  0  0  0  0  0  0  0  0  0
    5.5970   -5.7610   23.2310 H   0  0  0  0  0  0  0  0  0  0  0  0
    7.0990   -6.6360   23.4150 H   0  0  0  0  0  0  0  0  0  0  0  0
    5.1850   -4.0020   24.9230 H   0  0  0  0  0  0  0  0  0  0  0  0
    5.9730   -4.2260   26.4660 H   0  0  0  0  0  0  0  0  0  0  0  0
    6.5440   -2.3350   24.3610 H   0  0  0  0  0  0  0  0  0  0  0  0
    7.2380   -2.2520   25.9290 H   0  0  0  0  0  0  0  0  0  0  0  0
   10.4030   -0.5910   26.2780 H   0  0  0  0  0  0  0  0  0  0  0  0
  2  1  1  1
  2  3  1  0
  3  4  1  0
  4  5  1  6
  5  6  3  0
  4  7  1  0
  7  8  1  0
  8  9  1  0
  9 10  1  0
 10 11  1  0
 11 12  3  0
  4 13  1  0
 10 13  1  0
 13 14  1  0
  2 15  1  0
 14 15  1  0
 15 16  1  0
 16 17  1  0
 17 18  1  0
 18 19  1  0
 19 20  1  0
 20 21  1  0
 16 22  1  0
 21 22  1  0
  2 23  1  0
  7 23  1  0
  1 24  1  0
  1 25  1  0
  1 26  1  0
  3 27  1  0
  3 28  1  0
  7 29  1  6
  8 30  1  0
  9 31  1  0
  9 32  1  0
 10 33  1  1
 14 34  1  0
 14 35  1  0
 15 36  1  1
 17 37  1  0
 17 38  1  0
 18 39  1  0
 18 40  1  0
 19 41  1  0
 19 42  1  0
 21 43  1  0
 21 44  1  0
 22 45  1  0
 22 46  1  0
 23 47  1  0
M  END
