LIG
     RDKit          3D

 47 50  0  0  0  0  0  0  0  0999 V2000
    8.4100    0.0120   27.4140 C   0  0  0  0  0  0  0  0  0  0  0  0
    8.8870   -1.0620   25.4510 C   0  0  0  0  0  0  0  0  0  0  0  0
    8.8780   -0.4790   23.9400 C   0  0  0  0  0  0  0  0  0  0  0  0
   10.0800   -0.9475   23.3220 C   0  0  0  0  0  0  0  0  0  0  0  0
    9.7510    0.5640   21.9590 C   0  0  0  0  0  0  0  0  0  0  0  0
    9.8900    1.5270   21.3460 N   0  0  0  0  0  0  0  0  0  0  0  0
   10.9270   -0.1760   24.6090 C   0  0  0  0  0  0  0  0  0  0  0  0
   12.0070    0.5160   24.2990 N   0  0  0  0  0  0  0  0  0  0  0  0
   12.7880    0.1370   23.2890 C   0  0  0  0  0  0  0  0  0  0  0  0
   12.4940   -0.9910   22.5240 C   0  0  0  0  0  0  0  0  0  0  0  0
   13.3880   -1.4320   21.3740 C   0  0  0  0  0  0  0  0  0  0  0  0
   14.0700   -1.7370   20.5180 N   0  0  0  0  0  0  0  0  0  0  0  0
   10.7830   -1.7270   22.5865 N   0  0  0  0  0  0  0  0  0  0  0  0
   10.1230   -2.7850   23.1640 C   0  0  0  0  0  0  0  0  0  0  0  0
    9.4490   -2.7910   24.4310 C   0  0  0  0  0  0  0  0  0  0  0  0
    9.5290   -3.9700   25.2640 N   0  0  0  0  0  0  0  0  0  0  0  0
    9.8940   -5.2910   24.6800 C   0  0  0  0  0  0  0  0  0  0  0  0
    8.9080   -5.8040   23.6240 C   0  0  0  0  0  0  0  0  0  0  0  0
    7.4420   -5.5890   24.0410 C   0  0  0  0  0  0  0  0  0  0  0  0
    7.3000   -5.8000   25.4420 O   0  0  0  0  0  0  0  0  0  0  0  0
    7.2860   -4.6680   26.2770 C   0  0  0  0  0  0  0  0  0  0  0  0
    8.7010   -4.0730   26.4970 C   0  0  0  0  0  0  0  0  0  0  0  0
   10.1000    0.2670   25.7050 N   0  0  0  0  0  0  0  0  0  0  0  0
    9.0105    0.7972   27.1525 H   0  0  0  0  0  0  0  0  0  0  0  0
    8.8050   -0.7581   27.9535 H   0  0  0  0  0  0  0  0  0  0  0  0
    9.3873   -0.0115   27.6940 H   0  0  0  0  0  0  0  0  0  0  0  0
    8.7438    0.6354   23.9689 H   0  0  0  0  0  0  0  0  0  0  0  0
    7.9379   -0.8410   23.4421 H   0  0  0  0  0  0  0  0  0  0  0  0
   11.4544   -1.2510   25.0913 H   0  0  0  0  0  0  0  0  0  0  0  0
   11.6557    1.5222   24.1396 H   0  0  0  0  0  0  0  0  0  0  0  0
   12.9607    1.0613   22.6340 H   0  0  0  0  0  0  0  0  0  0  0  0
   13.8355    0.0151   23.7262 H   0  0  0  0  0  0  0  0  0  0  0  0
   12.9027   -1.9515   23.3278 H   0  0  0  0  0  0  0  0  0  0  0  0
    9.3806   -3.2232   22.3780 H   0  0  0  0  0  0  0  0  0  0  0  0
   10.8885   -3.6614   23.1733 H   0  0  0  0  0  0  0  0  0  0  0  0
   10.8344   -2.4844   25.0644 H   0  0  0  0  0  0  0  0  0  0  0  0
   10.8464   -5.2412   24.1492 H   0  0  0  0  0  0  0  0  0  0  0  0
   10.0542   -6.0273   25.4753 H   0  0  0  0  0  0  0  0  0  0  0  0
    9.0820   -6.8550   23.4678 H   0  0  0  0  0  0  0  0  0  0  0  0
    9.0618   -5.2677   22.7013 H   0  0  0  0  0  0  0  0  0  0  0  0
    7.0878   -4.6131   23.7696 H   0  0  0  0  0  0  0  0  0  0  0  0
    6.8341   -6.3265   23.5462 H   0  0  0  0  0  0  0  0  0  0  0  0
    6.6812   -3.9180   25.7794 H   0  0  0  0  0  0  0  0  0  0  0  0
    6.7963   -4.9028   27.2114 H   0  0  0  0  0  0  0  0  0  0  0  0
    8.5643   -3.0828   26.8935 H   0  0  0  0  0  0  0  0  0  0  0  0
    9.1745   -4.7045   27.2301 H   0  0  0  0  0  0  0  0  0  0  0  0
   10.4411    0.0602   26.5599 H   0  0  0  0  0  0  0  0  0  0  0  0
  1  2  1  0
  2  3  1  0
  3  4  1  0
  4  5  1  0
  5  6  3  0
  4  7  1  0
  7  8  1  0
  8  9  1  0
  9 10  1  0
 10 11  1  0
 11 12  3  0
 10 13  1  0
 13 14  1  0
 14 15  1  0
 15 16  1  0
 16 17  1  0
 17 18  1  0
 18 19  1  0
 19 20  1  0
 20 21  1  0
 21 22  1  0
  7 23  1  0
 15  2  1  0
 22 16  1  0
 23  2  1  0
 13  4  1  0
  1 24  1  0
  1 25  1  0
  1 26  1  0
  3 27  1  0
  3 28  1  0
  7 29  1  0
  8 30  1  0
  9 31  1  0
  9 32  1  0
 10 33  1  0
 14 34  1  0
 14 35  1  0
 15 36  1  0
 17 37  1  0
 17 38  1  0
 18 39  1  0
 18 40  1  0
 19 41  1  0
 19 42  1  0
 21 43  1  0
 21 44  1  0
 22 45  1  0
 22 46  1  0
 23 47  1  0
M  END
