LIG
     RDKit          3D

 53 56  0  0  0  0  0  0  0  0999 V2000
   13.4430   -1.1925   22.9365 C   0  0  0  0  0  0  0  0  0  0  0  0
   12.1505   -0.4625   23.9540 N   0  0  0  0  0  0  0  0  0  0  0  0
   12.6475    0.2445   23.3220 C   0  0  0  0  0  0  0  0  0  0  0  0
   10.6540    0.8680   23.3430 C   0  0  0  0  0  0  0  0  0  0  0  0
   10.4505   -0.6195   23.1440 N   0  0  0  0  0  0  0  0  0  0  0  0
    9.0660    0.2300   21.5610 C   0  0  0  0  0  0  0  0  0  0  0  0
    8.9960    1.3830   21.1430 O   0  0  0  0  0  0  0  0  0  0  0  0
    8.3080   -0.8880   20.8630 C   0  0  0  0  0  0  0  0  0  0  0  0
    7.4330   -0.3020   19.8060 C   0  0  0  0  0  0  0  0  0  0  0  0
    7.6450   -0.3300   18.4600 C   0  0  0  0  0  0  0  0  0  0  0  0
    6.6410    0.3430   17.8150 N   0  0  0  0  0  0  0  0  0  0  0  0
    5.7600    0.8140   18.7420 C   0  0  0  0  0  0  0  0  0  0  0  0
    4.6510    1.5300   18.5060 N   0  0  0  0  0  0  0  0  0  0  0  0
    3.9600    1.8790   19.5990 C   0  0  0  0  0  0  0  0  0  0  0  0
    4.3240    1.5630   20.9050 C   0  0  0  0  0  0  0  0  0  0  0  0
    5.4760    0.8390   21.1280 C   0  0  0  0  0  0  0  0  0  0  0  0
    6.2270    0.4400   20.0170 C   0  0  0  0  0  0  0  0  0  0  0  0
    9.8565   -1.4770   23.6875 C   0  0  0  0  0  0  0  0  0  0  0  0
    9.5440   -2.6880   24.5510 N   0  0  0  0  0  0  0  0  0  0  0  0
   10.6550   -3.2590   25.2740 C   0  0  0  0  0  0  0  0  0  0  0  0
   10.4200   -4.6660   25.8330 C   0  0  0  0  0  0  0  0  0  0  0  0
    9.1820   -4.8160   26.5550 C   0  0  0  0  0  0  0  0  0  0  0  0
    9.3040   -4.2150   27.8200 O   0  0  0  0  0  0  0  0  0  0  0  0
    8.0790   -4.2690   25.8080 C   0  0  0  0  0  0  0  0  0  0  0  0
    8.3310   -2.8350   25.3360 C   0  0  0  0  0  0  0  0  0  0  0  0
   11.5915   -1.8125   22.7755 C   0  0  0  0  0  0  0  0  0  0  0  0
   14.1544   -0.4331   22.8604 H   0  0  0  0  0  0  0  0  0  0  0  0
   14.2747   -1.1319   23.5717 H   0  0  0  0  0  0  0  0  0  0  0  0
   13.7159   -2.0293   23.5057 H   0  0  0  0  0  0  0  0  0  0  0  0
   12.9160    1.2330   23.6498 H   0  0  0  0  0  0  0  0  0  0  0  0
   12.5740    0.2039   22.2508 H   0  0  0  0  0  0  0  0  0  0  0  0
   10.7104    1.3445   22.5094 H   0  0  0  0  0  0  0  0  0  0  0  0
   10.6855    1.1606   24.2544 H   0  0  0  0  0  0  0  0  0  0  0  0
    7.6930   -1.4027   21.5836 H   0  0  0  0  0  0  0  0  0  0  0  0
    9.0187   -1.5588   20.4086 H   0  0  0  0  0  0  0  0  0  0  0  0
    8.4466   -0.7886   17.8663 H   0  0  0  0  0  0  0  0  0  0  0  0
    6.5438    0.4841   16.8269 H   0  0  0  0  0  0  0  0  0  0  0  0
    3.0568    2.4453   19.4113 H   0  0  0  0  0  0  0  0  0  0  0  0
    3.6950    1.8841   21.7335 H   0  0  0  0  0  0  0  0  0  0  0  0
    5.7856    0.5712   22.1384 H   0  0  0  0  0  0  0  0  0  0  0  0
   11.0432   -1.1879   24.7454 H   0  0  0  0  0  0  0  0  0  0  0  0
   10.9611   -2.6216   26.1450 H   0  0  0  0  0  0  0  0  0  0  0  0
   11.5772   -3.2660   24.6308 H   0  0  0  0  0  0  0  0  0  0  0  0
   10.5148   -5.3843   24.9849 H   0  0  0  0  0  0  0  0  0  0  0  0
   11.2807   -4.9263   26.4910 H   0  0  0  0  0  0  0  0  0  0  0  0
    9.4795   -3.0544   26.3957 H   0  0  0  0  0  0  0  0  0  0  0  0
    9.3346   -3.2490   27.6873 H   0  0  0  0  0  0  0  0  0  0  0  0
    7.1257   -4.2948   26.3876 H   0  0  0  0  0  0  0  0  0  0  0  0
    7.8498   -4.9015   24.9164 H   0  0  0  0  0  0  0  0  0  0  0  0
    7.4409   -2.5167   24.7759 H   0  0  0  0  0  0  0  0  0  0  0  0
    8.4028   -2.1953   26.2246 H   0  0  0  0  0  0  0  0  0  0  0  0
   11.4798   -1.3733   21.9977 H   0  0  0  0  0  0  0  0  0  0  0  0
   11.8499   -2.5738   23.2263 H   0  0  0  0  0  0  0  0  0  0  0  0
  1  2  1  0
  2  3  1  0
  3  4  1  0
  4  5  1  0
  5  6  1  0
  6  7  2  0
  6  8  1  0
  8  9  1  0
  9 10  4  0
 10 11  4  0
 11 12  4  0
 12 13  4  0
 13 14  4  0
 14 15  4  0
 15 16  4  0
 16 17  4  0
  5 18  1  0
 18 19  1  0
 19 20  1  0
 20 21  1  0
 21 22  1  0
 22 23  1  0
 22 24  1  0
 24 25  1  0
 18 26  1  0
 26  2  1  0
 17  9  4  0
 25 19  1  0
 17 12  4  0
  1 27  1  0
  1 28  1  0
  1 29  1  0
  3 30  1  0
  3 31  1  0
  4 32  1  0
  4 33  1  0
  8 34  1  0
  8 35  1  0
 10 36  1  0
 11 37  1  0
 14 38  1  0
 15 39  1  0
 16 40  1  0
 18 41  1  0
 20 42  1  0
 20 43  1  0
 21 44  1  0
 21 45  1  0
 22 46  1  0
 23 47  1  0
 24 48  1  0
 24 49  1  0
 25 50  1  0
 25 51  1  0
 26 52  1  0
 26 53  1  0
M  END
