
     RDKit          3D

 62 65  0  0  0  0  0  0  0  0999 V2000
   13.2870   -1.8780   24.1710 C   0  0  0  0  0  0  0  0  0  0  0  0
   12.0260   -1.2560   23.8360 N   0  0  0  0  0  0  0  0  0  0  0  0
   11.1810   -2.1730   23.0510 C   0  0  0  0  0  0  0  0  0  0  0  0
    9.9350   -1.5760   22.8270 C   0  0  0  0  0  0  0  0  0  0  0  0
   10.0320   -0.3750   22.2100 N   0  0  0  0  0  0  0  0  0  0  0  0
    8.9170    0.1140   21.4260 C   0  0  0  0  0  0  0  0  0  0  0  0
    8.7550    1.4990   21.1520 O   0  0  0  0  0  0  0  0  0  0  0  0
    8.0220   -0.9570   20.9210 C   0  0  0  0  0  0  0  0  0  0  0  0
    7.1880   -0.5260   19.9400 C   0  0  0  0  0  0  0  0  0  0  0  0
    7.2300   -0.9890   18.5150 C   0  0  0  0  0  0  0  0  0  0  0  0
    6.1190   -0.2050   17.8270 N   0  0  0  0  0  0  0  0  0  0  0  0
    5.5100    0.6540   18.8840 C   0  0  0  0  0  0  0  0  0  0  0  0
    4.5020    1.6140   19.0780 N   0  0  0  0  0  0  0  0  0  0  0  0
    4.3940    2.1270   20.4700 C   0  0  0  0  0  0  0  0  0  0  0  0
    5.2880    1.7120   21.7580 C   0  0  0  0  0  0  0  0  0  0  0  0
    4.7180    2.5100   22.6940 C   0  0  0  0  0  0  0  0  0  0  0  0
    3.5210    3.0440   22.5230 N   0  0  0  0  0  0  0  0  0  0  0  0
    2.5910    2.6930   23.3970 C   0  0  0  0  0  0  0  0  0  0  0  0
    2.7260    1.7170   24.4350 O   0  0  0  0  0  0  0  0  0  0  0  0
    1.4780    3.4210   23.1470 N   0  0  0  0  0  0  0  0  0  0  0  0
    0.3520    3.4200   24.0420 C   0  0  1  0  0  0  0  0  0  0  0  0
    0.2600    4.7030   24.5750 C   0  0  0  0  0  0  0  0  0  0  0  0
   -0.9490    5.0080   25.2220 C   0  0  0  0  0  0  0  0  0  0  0  0
   -2.1210    4.6410   24.3130 C   0  0  0  0  0  0  0  0  0  0  0  0
   -2.0370    3.3840   23.7340 C   0  0  0  0  0  0  0  0  0  0  0  0
   -0.7680    3.0360   23.2870 C   0  0  0  0  0  0  0  0  0  0  0  0
    5.3600    1.2960   20.5960 C   0  0  0  0  0  0  0  0  0  0  0  0
    6.1680    0.3870   19.9630 C   0  0  0  0  0  0  0  0  0  0  0  0
   10.8270    0.5770   22.9240 C   0  0  0  0  0  0  0  0  0  0  0  0
   12.2140    0.0850   23.1510 C   0  0  0  0  0  0  0  0  0  0  0  0
   13.5710   -1.6280   25.2000 H   0  0  0  0  0  0  0  0  0  0  0  0
   13.2450   -2.9710   24.0880 H   0  0  0  0  0  0  0  0  0  0  0  0
   14.0410   -1.5080   23.4900 H   0  0  0  0  0  0  0  0  0  0  0  0
   11.6450   -2.3990   22.0800 H   0  0  0  0  0  0  0  0  0  0  0  0
   11.0480   -3.1080   23.6040 H   0  0  0  0  0  0  0  0  0  0  0  0
    9.4250   -1.4280   23.7890 H   0  0  0  0  0  0  0  0  0  0  0  0
    9.2980   -2.2600   22.2500 H   0  0  0  0  0  0  0  0  0  0  0  0
    7.5490   -1.5460   21.7080 H   0  0  0  0  0  0  0  0  0  0  0  0
    8.6720   -1.6860   20.4470 H   0  0  0  0  0  0  0  0  0  0  0  0
    7.9030   -1.7140   18.0700 H   0  0  0  0  0  0  0  0  0  0  0  0
    5.7890   -0.1910   16.8760 H   0  0  0  0  0  0  0  0  0  0  0  0
    3.6250    2.8810   20.6810 H   0  0  0  0  0  0  0  0  0  0  0  0
    4.6130    1.9790   23.6420 H   0  0  0  0  0  0  0  0  0  0  0  0
    5.3670    3.3700   22.8590 H   0  0  0  0  0  0  0  0  0  0  0  0
    3.4910    4.0060   22.2060 H   0  0  0  0  0  0  0  0  0  0  0  0
    1.2940    3.6260   22.1790 H   0  0  0  0  0  0  0  0  0  0  0  0
    0.5410    2.6070   24.7460 H   0  0  0  0  0  0  0  0  0  0  0  0
    0.6240    5.4120   23.8210 H   0  0  0  0  0  0  0  0  0  0  0  0
    1.0370    4.7660   25.3500 H   0  0  0  0  0  0  0  0  0  0  0  0
   -1.0270    4.4080   26.1340 H   0  0  0  0  0  0  0  0  0  0  0  0
   -1.1130    6.0370   25.5550 H   0  0  0  0  0  0  0  0  0  0  0  0
   -2.0570    5.3460   23.4760 H   0  0  0  0  0  0  0  0  0  0  0  0
   -3.1080    4.8320   24.7180 H   0  0  0  0  0  0  0  0  0  0  0  0
   -2.5400    2.6160   24.3110 H   0  0  0  0  0  0  0  0  0  0  0  0
   -2.6470    3.4370   22.8270 H   0  0  0  0  0  0  0  0  0  0  0  0
   -0.7350    1.9570   23.1420 H   0  0  0  0  0  0  0  0  0  0  0  0
   -0.6690    3.4730   22.2880 H   0  0  0  0  0  0  0  0  0  0  0  0
    4.6320    1.7430   19.9310 H   0  0  0  0  0  0  0  0  0  0  0  0
   10.2830    0.7570   23.8390 H   0  0  0  0  0  0  0  0  0  0  0  0
   10.8420    1.5160   22.3680 H   0  0  0  0  0  0  0  0  0  0  0  0
   12.7510   -0.0860   22.2090 H   0  0  0  0  0  0  0  0  0  0  0  0
   12.7990    0.8010   23.7390 H   0  0  0  0  0  0  0  0  0  0  0  0
  1  2  1  0
  2  3  1  0
  3  4  1  0
  4  5  1  0
  5  6  1  0
  6  7  2  0
  6  8  1  0
  8  9  1  0
  9 10  2  0
 10 11  1  0
 11 12  1  0
 12 13  1  0
 13 14  2  0
 14 15  1  0
 15 16  1  0
 16 17  1  0
 17 18  1  0
 18 19  2  0
 18 20  1  0
 20 21  1  0
 21 22  1  0
 22 23  1  0
 23 24  1  0
 24 25  1  0
 21 26  1  0
 25 26  1  0
 15 27  2  0
  9 28  1  0
 12 28  2  0
 27 28  1  0
  5 29  1  0
  2 30  1  0
 29 30  1  0
  1 31  1  0
  1 32  1  0
  1 33  1  0
  3 34  1  0
  3 35  1  0
  4 36  1  0
  4 37  1  0
  8 38  1  0
  8 39  1  0
 10 40  1  0
 11 41  1  0
 14 42  1  0
 16 43  1  0
 16 44  1  0
 17 45  1  0
 20 46  1  0
 21 47  1  1
 22 48  1  0
 22 49  1  0
 23 50  1  0
 23 51  1  0
 24 52  1  0
 24 53  1  0
 25 54  1  0
 25 55  1  0
 26 56  1  0
 26 57  1  0
 27 58  1  0
 29 59  1  0
 29 60  1  0
 30 61  1  0
 30 62  1  0
M  END
