
     RDKit          3D

 37 39  0  0  0  0  0  0  0  0999 V2000
   13.3720   -1.6380   23.5360 C   0  0  0  0  0  0  0  0  0  0  0  0
   12.0280   -1.1630   23.7440 N   0  0  0  0  0  0  0  0  0  0  0  0
   11.0820   -1.9880   22.9820 C   0  0  0  0  0  0  0  0  0  0  0  0
    9.8110   -1.4270   23.0930 C   0  0  0  0  0  0  0  0  0  0  0  0
    9.7780   -0.1110   22.7550 N   0  0  0  0  0  0  0  0  0  0  0  0
    8.9120    0.3570   21.6550 C   0  0  0  0  0  0  0  0  0  0  0  0
    8.9620    1.6950   21.1910 O   0  0  0  0  0  0  0  0  0  0  0  0
    7.9900   -0.6910   21.0850 C   0  0  0  0  0  0  0  0  0  0  0  0
    7.0850   -0.2390   20.1500 C   0  0  0  0  0  0  0  0  0  0  0  0
    7.3440   -0.6210   18.7310 C   0  0  0  0  0  0  0  0  0  0  0  0
    6.2700    0.0090   17.9520 N   0  0  0  0  0  0  0  0  0  0  0  0
    5.3590    0.7510   18.8870 C   0  0  0  0  0  0  0  0  0  0  0  0
    4.2630    1.4440   18.4970 N   0  0  0  0  0  0  0  0  0  0  0  0
    3.6170    2.0100   19.5300 C   0  0  0  0  0  0  0  0  0  0  0  0
    4.0720    1.8870   20.9600 C   0  0  0  0  0  0  0  0  0  0  0  0
    5.1910    1.1730   21.2470 C   0  0  0  0  0  0  0  0  0  0  0  0
    5.8960    0.5640   20.2210 C   0  0  0  0  0  0  0  0  0  0  0  0
   10.6380    0.7480   23.4530 C   0  0  0  0  0  0  0  0  0  0  0  0
   11.9410    0.2690   23.3920 C   0  0  0  0  0  0  0  0  0  0  0  0
   13.3570   -2.6250   23.0640 H   0  0  0  0  0  0  0  0  0  0  0  0
   13.9160   -1.7310   24.4770 H   0  0  0  0  0  0  0  0  0  0  0  0
   13.8880   -0.9470   22.8680 H   0  0  0  0  0  0  0  0  0  0  0  0
   11.0550   -3.0070   23.3830 H   0  0  0  0  0  0  0  0  0  0  0  0
   11.3810   -2.0290   21.9290 H   0  0  0  0  0  0  0  0  0  0  0  0
    9.4570   -1.5230   24.1250 H   0  0  0  0  0  0  0  0  0  0  0  0
    9.1010   -2.0010   22.4830 H   0  0  0  0  0  0  0  0  0  0  0  0
    8.5070   -1.6080   20.8150 H   0  0  0  0  0  0  0  0  0  0  0  0
    7.3640   -1.0150   21.9280 H   0  0  0  0  0  0  0  0  0  0  0  0
    8.1510   -1.2240   18.3350 H   0  0  0  0  0  0  0  0  0  0  0  0
    6.1310   -0.0260   16.9490 H   0  0  0  0  0  0  0  0  0  0  0  0
    2.7090    2.6020   19.3620 H   0  0  0  0  0  0  0  0  0  0  0  0
    3.5070    2.3700   21.7630 H   0  0  0  0  0  0  0  0  0  0  0  0
    5.5510    1.0640   22.2720 H   0  0  0  0  0  0  0  0  0  0  0  0
   10.1910    0.8830   24.4360 H   0  0  0  0  0  0  0  0  0  0  0  0
   10.6160    1.7250   22.9680 H   0  0  0  0  0  0  0  0  0  0  0  0
   12.5590    0.8230   24.1040 H   0  0  0  0  0  0  0  0  0  0  0  0
   12.3730    0.4270   22.3970 H   0  0  0  0  0  0  0  0  0  0  0  0
  1  2  1  0
  2  3  1  0
  3  4  1  0
  4  5  1  0
  5  6  1  0
  6  7  2  0
  6  8  1  0
  8  9  1  0
  9 10  2  0
 10 11  1  0
 11 12  1  0
 12 13  1  0
 13 14  2  0
 14 15  1  0
 15 16  2  0
  9 17  1  0
 12 17  2  0
 16 17  1  0
  5 18  1  0
  2 19  1  0
 18 19  1  0
  1 20  1  0
  1 21  1  0
  1 22  1  0
  3 23  1  0
  3 24  1  0
  4 25  1  0
  4 26  1  0
  8 27  1  0
  8 28  1  0
 10 29  1  0
 11 30  1  0
 14 31  1  0
 15 32  1  0
 16 33  1  0
 18 34  1  0
 18 35  1  0
 19 36  1  0
 19 37  1  0
M  END
