LIG
     RDKit          3D

 37 39  0  0  0  0  0  0  0  0999 V2000
   13.7290   -1.2710   23.6040 C   0  0  0  0  0  0  0  0  0  0  0  0
   12.3210   -0.8940   23.7180 N   0  0  0  0  0  0  0  0  0  0  0  0
   11.4670   -1.8380   22.9920 C   0  0  0  0  0  0  0  0  0  0  0  0
   10.0140   -1.4540   23.1290 C   0  0  0  0  0  0  0  0  0  0  0  0
    9.8260   -0.0960   22.6220 N   0  0  0  0  0  0  0  0  0  0  0  0
    9.0660    0.2300   21.5610 C   0  0  0  0  0  0  0  0  0  0  0  0
    8.9960    1.3830   21.1430 O   0  0  0  0  0  0  0  0  0  0  0  0
    8.3080   -0.8880   20.8630 C   0  0  0  0  0  0  0  0  0  0  0  0
    6.7410   -0.4870   19.6690 C   0  0  0  0  0  0  0  0  0  0  0  0
    7.1045   -0.3910   18.3675 C   0  0  0  0  0  0  0  0  0  0  0  0
    6.4350    0.4450   17.6260 N   0  0  0  0  0  0  0  0  0  0  0  0
    5.5250    1.1085   18.3030 C   0  0  0  0  0  0  0  0  0  0  0  0
    4.6650    1.4060   18.8235 N   0  0  0  0  0  0  0  0  0  0  0  0
    3.8355    1.9990   19.5720 C   0  0  0  0  0  0  0  0  0  0  0  0
    4.3240    1.5630   20.9050 C   0  0  0  0  0  0  0  0  0  0  0  0
    5.4760    0.8390   21.1280 C   0  0  0  0  0  0  0  0  0  0  0  0
    5.6745    0.3215   19.9830 C   0  0  0  0  0  0  0  0  0  0  0  0
   10.6540    0.8680   23.3430 C   0  0  0  0  0  0  0  0  0  0  0  0
   12.1050    0.4690   23.2230 C   0  0  0  0  0  0  0  0  0  0  0  0
   13.8526   -2.3487   23.7561 H   0  0  0  0  0  0  0  0  0  0  0  0
   14.3227   -0.7745   24.3791 H   0  0  0  0  0  0  0  0  0  0  0  0
   14.1467   -1.0083   22.6258 H   0  0  0  0  0  0  0  0  0  0  0  0
   11.6212   -2.8575   23.3111 H   0  0  0  0  0  0  0  0  0  0  0  0
   11.7453   -1.7685   21.9475 H   0  0  0  0  0  0  0  0  0  0  0  0
    9.7050   -1.4510   24.1729 H   0  0  0  0  0  0  0  0  0  0  0  0
    9.3828   -2.1475   22.5801 H   0  0  0  0  0  0  0  0  0  0  0  0
    8.8864   -1.4631   20.1317 H   0  0  0  0  0  0  0  0  0  0  0  0
    7.7798   -1.6002   21.5113 H   0  0  0  0  0  0  0  0  0  0  0  0
    7.9522   -0.9889   17.8569 H   0  0  0  0  0  0  0  0  0  0  0  0
    6.5782    0.6014   16.5978 H   0  0  0  0  0  0  0  0  0  0  0  0
    3.1175    2.5478   19.4099 H   0  0  0  0  0  0  0  0  0  0  0  0
    3.6737    1.8613   21.7613 H   0  0  0  0  0  0  0  0  0  0  0  0
    5.9635    0.7721   22.0094 H   0  0  0  0  0  0  0  0  0  0  0  0
   10.3541    0.8948   24.3870 H   0  0  0  0  0  0  0  0  0  0  0  0
   10.4756    1.8456   22.8972 H   0  0  0  0  0  0  0  0  0  0  0  0
   12.7134    1.1793   23.7914 H   0  0  0  0  0  0  0  0  0  0  0  0
   12.4176    0.5215   22.1780 H   0  0  0  0  0  0  0  0  0  0  0  0
  1  2  1  0
  2  3  1  0
  3  4  1  0
  4  5  1  0
  5  6  1  0
  6  7  2  0
  6  8  1  0
  8  9  1  0
  9 10  4  0
 10 11  4  0
 11 12  4  0
 12 13  4  0
 13 14  4  0
 14 15  4  0
 15 16  4  0
 16 17  4  0
  5 18  1  0
 18 19  1  0
 19  2  1  0
 17  9  4  0
 17 12  4  0
  1 20  1  0
  1 21  1  0
  1 22  1  0
  3 23  1  0
  3 24  1  0
  4 25  1  0
  4 26  1  0
  8 27  1  0
  8 28  1  0
 10 29  1  0
 11 30  1  0
 14 31  1  0
 15 32  1  0
 16 33  1  0
 18 34  1  0
 18 35  1  0
 19 36  1  0
 19 37  1  0
M  END
