
     RDKit          3D

 50 53  0  0  0  0  0  0  0  0999 V2000
   13.3390   -2.4830   24.2460 C   0  0  0  0  0  0  0  0  0  0  0  0
   12.9140   -1.0500   24.0520 C   0  0  0  0  0  0  0  0  0  0  0  0
   12.3200   -0.7430   22.8570 N   0  0  1  0  0  0  0  0  0  0  0  0
   13.2640   -0.8480   21.8680 O   0  0  0  0  0  0  0  0  0  0  0  0
   11.2000   -1.5820   22.4800 C   0  0  0  0  0  0  0  0  0  0  0  0
    9.9320   -1.2510   23.2660 C   0  0  0  0  0  0  0  0  0  0  0  0
    9.3960    0.0880   22.9610 N   0  0  0  0  0  0  0  0  0  0  0  0
    8.6150    0.1820   21.7180 C   0  0  0  0  0  0  0  0  0  0  0  0
    8.5650    1.2580   21.0770 O   0  0  0  0  0  0  0  0  0  0  0  0
    7.9730   -0.9610   21.2880 C   0  0  0  0  0  0  0  0  0  0  0  0
    7.1840   -0.4530   20.0930 C   0  0  0  0  0  0  0  0  0  0  0  0
    7.3570   -0.6500   18.7460 C   0  0  0  0  0  0  0  0  0  0  0  0
    6.4360    0.0010   18.0320 N   0  0  0  0  0  0  0  0  0  0  0  0
    5.6070    0.6520   18.9090 C   0  0  0  0  0  0  0  0  0  0  0  0
    4.5550    1.4110   18.4780 N   0  0  0  0  0  0  0  0  0  0  0  0
    3.7490    2.0420   19.4530 C   0  0  0  0  0  0  0  0  0  0  0  0
    4.0860    1.8490   20.7980 C   0  0  0  0  0  0  0  0  0  0  0  0
    5.1810    1.0610   21.1630 C   0  0  0  0  0  0  0  0  0  0  0  0
    5.9890    0.4290   20.2400 C   0  0  0  0  0  0  0  0  0  0  0  0
   10.3560    1.1080   23.0770 C   0  0  0  0  0  0  0  0  0  0  0  0
    9.9550    2.4520   23.2490 C   0  0  0  0  0  0  0  0  0  0  0  0
   11.0610    3.4730   23.2880 C   0  0  0  0  0  0  0  0  0  0  0  0
   10.4840    5.1930   23.5300 S   0  0  2  0  0  0  0  0  0  0  0  0
    9.0590    5.2190   22.6480 N   0  0  0  0  0  0  0  0  0  0  0  0
   11.3710    6.1340   22.8890 O   0  0  0  0  0  0  0  0  0  0  0  0
   10.0410    5.4180   24.8850 O   0  0  0  0  0  0  0  0  0  0  0  0
   12.3980    3.1530   23.1500 C   0  0  0  0  0  0  0  0  0  0  0  0
   12.8020    1.8040   23.0060 C   0  0  0  0  0  0  0  0  0  0  0  0
   11.8680    0.7420   22.9790 C   0  0  0  0  0  0  0  0  0  0  0  0
   14.0310   -2.5870   25.0880 H   0  0  0  0  0  0  0  0  0  0  0  0
   12.4550   -3.0900   24.4590 H   0  0  0  0  0  0  0  0  0  0  0  0
   13.8290   -2.8420   23.3380 H   0  0  0  0  0  0  0  0  0  0  0  0
   13.7930   -0.4390   24.1290 H   0  0  0  0  0  0  0  0  0  0  0  0
   12.2410   -0.7750   24.8720 H   0  0  0  0  0  0  0  0  0  0  0  0
   11.0470   -1.4990   21.3960 H   0  0  0  0  0  0  0  0  0  0  0  0
   11.4770   -2.6280   22.6650 H   0  0  0  0  0  0  0  0  0  0  0  0
    9.1730   -2.0230   23.0800 H   0  0  0  0  0  0  0  0  0  0  0  0
   10.1510   -1.3170   24.3390 H   0  0  0  0  0  0  0  0  0  0  0  0
    7.4240   -1.5090   22.0490 H   0  0  0  0  0  0  0  0  0  0  0  0
    8.7290   -1.6610   20.9160 H   0  0  0  0  0  0  0  0  0  0  0  0
    8.1410   -1.2510   18.3060 H   0  0  0  0  0  0  0  0  0  0  0  0
    6.3680    0.0100   17.0230 H   0  0  0  0  0  0  0  0  0  0  0  0
    2.9060    2.6490   19.1050 H   0  0  0  0  0  0  0  0  0  0  0  0
    3.5410    2.2820   21.6390 H   0  0  0  0  0  0  0  0  0  0  0  0
    5.4070    0.9390   22.2290 H   0  0  0  0  0  0  0  0  0  0  0  0
    8.8790    2.6460   23.3320 H   0  0  0  0  0  0  0  0  0  0  0  0
    9.2920    5.2050   21.6510 H   0  0  0  0  0  0  0  0  0  0  0  0
    8.4680    4.4370   22.9310 H   0  0  0  0  0  0  0  0  0  0  0  0
   13.1610    3.9320   23.1670 H   0  0  0  0  0  0  0  0  0  0  0  0
   13.8560    1.5750   22.9150 H   0  0  0  0  0  0  0  0  0  0  0  0
  1  2  1  0
  2  3  1  0
  3  4  1  6
  3  5  1  0
  5  6  1  0
  6  7  1  0
  7  8  1  0
  8  9  2  0
  8 10  1  0
 10 11  1  0
 11 12  2  0
 12 13  1  0
 13 14  1  0
 14 15  1  0
 15 16  2  0
 16 17  1  0
 17 18  2  0
 11 19  1  0
 14 19  2  0
 18 19  1  0
  7 20  1  0
 20 21  1  0
 21 22  2  0
 22 23  1  0
 23 24  1  6
 23 25  2  0
 23 26  2  0
 22 27  1  0
 27 28  2  0
  3 29  1  0
 20 29  2  0
 28 29  1  0
  1 30  1  0
  1 31  1  0
  1 32  1  0
  2 33  1  0
  2 34  1  0
  5 35  1  0
  5 36  1  0
  6 37  1  0
  6 38  1  0
 10 39  1  0
 10 40  1  0
 12 41  1  0
 13 42  1  0
 16 43  1  0
 17 44  1  0
 18 45  1  0
 21 46  1  0
 24 47  1  0
 24 48  1  0
 27 49  1  0
 28 50  1  0
M  CHG  2   3   1   4  -1
M  END
