
     RDKit          3D

 38 41  0  0  0  0  0  0  0  0999 V2000
    8.7020    1.5280   21.1040 O   0  0  0  0  0  0  0  0  0  0  0  0
    8.8180    0.1990   21.6240 C   0  0  0  0  0  0  0  0  0  0  0  0
    7.7140   -0.7220   21.2250 C   0  0  0  0  0  0  0  0  0  0  0  0
    7.0020   -0.2730   20.1270 C   0  0  0  0  0  0  0  0  0  0  0  0
    7.2990   -0.5570   18.7100 C   0  0  0  0  0  0  0  0  0  0  0  0
    6.4070    0.0640   17.9720 N   0  0  0  0  0  0  0  0  0  0  0  0
    5.5210    0.7410   18.7690 C   0  0  0  0  0  0  0  0  0  0  0  0
    4.3680    1.5720   18.4360 N   0  0  0  0  0  0  0  0  0  0  0  0
    3.5830    2.1760   19.5180 C   0  0  0  0  0  0  0  0  0  0  0  0
    3.9770    1.9420   20.9800 C   0  0  0  0  0  0  0  0  0  0  0  0
    5.1050    1.1370   21.2400 C   0  0  0  0  0  0  0  0  0  0  0  0
    5.8680    0.5420   20.1130 C   0  0  0  0  0  0  0  0  0  0  0  0
    9.8480   -0.2590   22.4200 N   0  0  0  0  0  0  0  0  0  0  0  0
   10.7010    0.8290   22.8460 C   0  0  0  0  0  0  0  0  0  0  0  0
   11.9980    0.5230   23.1440 C   0  0  0  0  0  0  0  0  0  0  0  0
   12.2280   -0.6370   23.7850 N   0  0  0  0  0  0  0  0  0  0  0  0
   13.2820   -1.2870   23.3230 C   0  0  0  0  0  0  0  0  0  0  0  0
   12.6180   -2.2400   22.7270 C   0  0  0  0  0  0  0  0  0  0  0  0
   11.4100   -1.8330   23.2670 C   0  0  2  0  0  0  0  0  0  0  0  0
   10.3050   -1.5960   22.4170 C   0  0  0  0  0  0  0  0  0  0  0  0
    8.1600   -1.6970   20.9880 H   0  0  0  0  0  0  0  0  0  0  0  0
    7.0240   -0.8680   22.0640 H   0  0  0  0  0  0  0  0  0  0  0  0
    8.1080   -1.1640   18.3290 H   0  0  0  0  0  0  0  0  0  0  0  0
    6.4670   -0.0180   16.9650 H   0  0  0  0  0  0  0  0  0  0  0  0
    2.7350    2.7810   19.2080 H   0  0  0  0  0  0  0  0  0  0  0  0
    3.3510    2.4220   21.7250 H   0  0  0  0  0  0  0  0  0  0  0  0
    5.3980    0.9640   22.2720 H   0  0  0  0  0  0  0  0  0  0  0  0
   10.2000    1.1210   23.7500 H   0  0  0  0  0  0  0  0  0  0  0  0
   10.5590    1.7060   22.2120 H   0  0  0  0  0  0  0  0  0  0  0  0
   12.5480    1.2510   23.7310 H   0  0  0  0  0  0  0  0  0  0  0  0
   12.6390    0.4210   22.2680 H   0  0  0  0  0  0  0  0  0  0  0  0
   13.9560   -1.6090   24.1120 H   0  0  0  0  0  0  0  0  0  0  0  0
   13.8900   -0.6450   22.7010 H   0  0  0  0  0  0  0  0  0  0  0  0
   12.9630   -3.2330   22.9710 H   0  0  0  0  0  0  0  0  0  0  0  0
   12.6700   -2.2440   21.6410 H   0  0  0  0  0  0  0  0  0  0  0  0
   11.0300   -2.4350   24.0860 H   0  0  0  0  0  0  0  0  0  0  0  0
   10.6640   -1.7620   21.3980 H   0  0  0  0  0  0  0  0  0  0  0  0
    9.4140   -2.2070   22.4620 H   0  0  0  0  0  0  0  0  0  0  0  0
  1  2  2  0
  2  3  1  0
  3  4  1  0
  4  5  2  0
  5  6  1  0
  6  7  1  0
  7  8  1  0
  8  9  2  0
  9 10  1  0
 10 11  2  0
  4 12  1  0
  7 12  2  0
 11 12  1  0
  2 13  1  0
 13 14  1  0
 14 15  1  0
 15 16  1  0
 16 17  1  0
 17 18  1  0
 16 19  1  0
 18 19  1  0
 13 20  1  0
 19 20  1  0
  3 21  1  0
  3 22  1  0
  5 23  1  0
  6 24  1  0
  9 25  1  0
 10 26  1  0
 11 27  1  0
 14 28  1  0
 14 29  1  0
 15 30  1  0
 15 31  1  0
 17 32  1  0
 17 33  1  0
 18 34  1  0
 18 35  1  0
 19 36  1  1
 20 37  1  0
 20 38  1  0
M  END
