
     RDKit          3D

 62 66  0  0  0  0  0  0  0  0999 V2000
    5.7030    3.8040   30.8750 C   0  0  0  0  0  0  0  0  0  0  0  0
    6.1110    2.6640   29.9840 C   0  0  0  0  0  0  0  0  0  0  0  0
    5.3090    1.5050   29.9810 C   0  0  0  0  0  0  0  0  0  0  0  0
    5.6960    0.3330   29.0880 C   0  0  0  0  0  0  0  0  0  0  0  0
    6.9220    0.5160   28.2690 C   0  0  0  0  0  0  0  0  0  0  0  0
    7.3380   -0.4850   27.4360 O   0  0  0  0  0  0  0  0  0  0  0  0
    8.2090   -0.0990   26.3710 C   0  0  0  0  0  0  0  0  0  0  0  0
    8.4390   -1.2570   25.4030 C   0  0  0  0  0  0  0  0  0  0  0  0
    7.5410   -2.0700   25.1700 O   0  0  0  0  0  0  0  0  0  0  0  0
    9.7070   -1.3620   24.8260 N   0  0  0  0  0  0  0  0  0  0  0  0
   10.3630   -2.5770   24.3440 C   0  0  0  0  0  0  0  0  0  0  0  0
   11.2140   -2.1860   23.1770 C   0  0  1  0  0  0  0  0  0  0  0  0
   10.4420   -1.4860   22.0750 C   0  0  0  0  0  0  0  0  0  0  0  0
   10.0240   -0.1560   22.2450 N   0  0  0  0  0  0  0  0  0  0  0  0
    8.8030    0.1730   21.5270 C   0  0  0  0  0  0  0  0  0  0  0  0
    8.6380    1.5340   21.0620 O   0  0  0  0  0  0  0  0  0  0  0  0
    7.7340   -0.6570   21.1860 C   0  0  0  0  0  0  0  0  0  0  0  0
    7.0960   -0.2790   20.0230 C   0  0  0  0  0  0  0  0  0  0  0  0
    7.3420   -0.5510   18.6900 C   0  0  0  0  0  0  0  0  0  0  0  0
    6.4010    0.0910   17.9220 N   0  0  0  0  0  0  0  0  0  0  0  0
    5.5080    0.7890   18.7280 C   0  0  0  0  0  0  0  0  0  0  0  0
    4.4340    1.5560   18.4930 N   0  0  0  0  0  0  0  0  0  0  0  0
    3.7500    2.1130   19.6640 C   0  0  0  0  0  0  0  0  0  0  0  0
    4.1430    1.9020   20.9770 C   0  0  0  0  0  0  0  0  0  0  0  0
    5.2580    1.1140   21.2040 C   0  0  0  0  0  0  0  0  0  0  0  0
    5.8620    0.6120   20.0530 C   0  0  0  0  0  0  0  0  0  0  0  0
   10.9210    0.8230   22.9650 C   0  0  0  0  0  0  0  0  0  0  0  0
   11.5140   -0.0880   24.0340 C   0  0  1  0  0  0  0  0  0  0  0  0
   10.6070   -0.2320   25.1790 C   0  0  0  0  0  0  0  0  0  0  0  0
   12.2580   -1.3140   23.6920 N   0  0  0  0  0  0  0  0  0  0  0  0
   13.3200   -1.1700   22.7430 C   0  0  0  0  0  0  0  0  0  0  0  0
    7.6540    1.6940   28.3350 C   0  0  0  0  0  0  0  0  0  0  0  0
    7.2610    2.7520   29.1750 C   0  0  0  0  0  0  0  0  0  0  0  0
    4.7260    3.6270   31.3360 H   0  0  0  0  0  0  0  0  0  0  0  0
    6.4410    3.9170   31.6730 H   0  0  0  0  0  0  0  0  0  0  0  0
    5.6550    4.7210   30.2820 H   0  0  0  0  0  0  0  0  0  0  0  0
    4.4210    1.4320   30.6020 H   0  0  0  0  0  0  0  0  0  0  0  0
    5.1800   -0.6180   28.9790 H   0  0  0  0  0  0  0  0  0  0  0  0
    9.1760    0.2550   26.7560 H   0  0  0  0  0  0  0  0  0  0  0  0
    7.7800    0.7380   25.8090 H   0  0  0  0  0  0  0  0  0  0  0  0
   11.0610   -2.9780   25.0810 H   0  0  0  0  0  0  0  0  0  0  0  0
    9.5700   -3.3050   24.1850 H   0  0  0  0  0  0  0  0  0  0  0  0
   11.6340   -3.0910   22.7400 H   0  0  0  0  0  0  0  0  0  0  0  0
    9.5180   -2.0440   21.9230 H   0  0  0  0  0  0  0  0  0  0  0  0
   10.9070   -1.5150   21.1050 H   0  0  0  0  0  0  0  0  0  0  0  0
    7.0940   -0.6240   22.0640 H   0  0  0  0  0  0  0  0  0  0  0  0
    8.0160   -1.7020   21.1630 H   0  0  0  0  0  0  0  0  0  0  0  0
    8.1770   -1.1820   18.4050 H   0  0  0  0  0  0  0  0  0  0  0  0
    6.3690    0.0560   16.9140 H   0  0  0  0  0  0  0  0  0  0  0  0
    2.8810    2.7250   19.4330 H   0  0  0  0  0  0  0  0  0  0  0  0
    3.5810    2.3490   21.7880 H   0  0  0  0  0  0  0  0  0  0  0  0
    5.6170    0.9130   22.2080 H   0  0  0  0  0  0  0  0  0  0  0  0
   10.3150    1.6380   23.3660 H   0  0  0  0  0  0  0  0  0  0  0  0
   11.6760    1.2300   22.2970 H   0  0  0  0  0  0  0  0  0  0  0  0
   12.0620    0.7480   24.5070 H   0  0  0  0  0  0  0  0  0  0  0  0
    9.9850    0.6450   25.3380 H   0  0  0  0  0  0  0  0  0  0  0  0
   11.1100   -0.4760   26.0970 H   0  0  0  0  0  0  0  0  0  0  0  0
   13.0150   -1.2300   21.6810 H   0  0  0  0  0  0  0  0  0  0  0  0
   13.8080   -0.2020   22.8920 H   0  0  0  0  0  0  0  0  0  0  0  0
   14.0600   -1.9470   22.9270 H   0  0  0  0  0  0  0  0  0  0  0  0
    8.5430    1.7900   27.7220 H   0  0  0  0  0  0  0  0  0  0  0  0
    7.8680    3.6550   29.1920 H   0  0  0  0  0  0  0  0  0  0  0  0
  1  2  1  0
  2  3  2  0
  3  4  1  0
  4  5  2  0
  5  6  1  0
  6  7  1  0
  7  8  1  0
  8  9  2  0
  8 10  1  0
 10 11  1  0
 11 12  1  0
 12 13  1  0
 13 14  1  0
 14 15  1  0
 15 16  2  0
 15 17  1  0
 17 18  1  0
 18 19  2  0
 19 20  1  0
 20 21  1  0
 21 22  1  0
 22 23  2  0
 23 24  1  0
 24 25  2  0
 18 26  1  0
 21 26  2  0
 25 26  1  0
 14 27  1  0
 27 28  1  0
 10 29  1  0
 28 29  1  0
 12 30  1  0
 28 30  1  0
 30 31  1  0
  5 32  1  0
  2 33  1  0
 32 33  2  0
  1 34  1  0
  1 35  1  0
  1 36  1  0
  3 37  1  0
  4 38  1  0
  7 39  1  0
  7 40  1  0
 11 41  1  0
 11 42  1  0
 12 43  1  6
 13 44  1  0
 13 45  1  0
 17 46  1  0
 17 47  1  0
 19 48  1  0
 20 49  1  0
 23 50  1  0
 24 51  1  0
 25 52  1  0
 27 53  1  0
 27 54  1  0
 28 55  1  1
 29 56  1  0
 29 57  1  0
 31 58  1  0
 31 59  1  0
 31 60  1  0
 32 61  1  0
 33 62  1  0
M  END
