
     RDKit          3D

 51 54  0  0  0  0  0  0  0  0999 V2000
   13.3710   -1.7380   23.5230 C   0  0  0  0  0  0  0  0  0  0  0  0
   12.0430   -1.2030   23.7200 N   0  0  0  0  0  0  0  0  0  0  0  0
   11.0830   -1.8620   22.8270 C   0  0  0  0  0  0  0  0  0  0  0  0
    9.7970   -1.3640   23.0800 C   0  0  0  0  0  0  0  0  0  0  0  0
    9.6630   -0.0260   22.8500 N   0  0  0  0  0  0  0  0  0  0  0  0
    8.7470    0.4930   21.8140 C   0  0  0  0  0  0  0  0  0  0  0  0
    8.9960    1.7320   21.1790 O   0  0  0  0  0  0  0  0  0  0  0  0
    7.5390   -0.3570   21.5320 C   0  0  0  0  0  0  0  0  0  0  0  0
    6.6890    0.1340   20.5680 C   0  0  0  0  0  0  0  0  0  0  0  0
    7.1690   -0.3250   19.2100 C   0  0  0  0  0  0  0  0  0  0  0  0
    6.2610    0.2430   18.2320 N   0  0  0  0  0  0  0  0  0  0  0  0
    5.2230    1.0370   18.9770 C   0  0  0  0  0  0  0  0  0  0  0  0
    4.2410    1.6920   18.3890 N   0  0  0  0  0  0  0  0  0  0  0  0
    4.3080    1.7310   19.5850 C   0  0  0  0  0  0  0  0  0  0  0  0
    3.7970    2.1770   20.7610 C   0  0  0  0  0  0  0  0  0  0  0  0
    4.5540    1.7200   21.7530 C   0  0  0  0  0  0  0  0  0  0  0  0
    3.5470    2.4870   22.4410 N   0  0  0  0  0  0  0  0  0  0  0  0
    2.8310    2.1400   23.5890 C   0  0  0  0  0  0  0  0  0  0  0  0
    3.0910    1.0180   24.4260 O   0  0  0  0  0  0  0  0  0  0  0  0
    1.7140    2.8220   24.1990 C   0  0  0  0  0  0  0  0  0  0  0  0
    0.3710    2.5700   23.8440 C   0  0  0  0  0  0  0  0  0  0  0  0
   -0.7410    3.1990   24.4440 C   0  0  0  0  0  0  0  0  0  0  0  0
   -0.5030    4.2150   25.5270 C   0  0  0  0  0  0  0  0  0  0  0  0
    0.8120    4.4710   25.8640 C   0  0  0  0  0  0  0  0  0  0  0  0
    1.8750    3.7970   25.2220 C   0  0  0  0  0  0  0  0  0  0  0  0
    3.1050    4.1260   25.6330 F   0  0  0  0  0  0  0  0  0  0  0  0
    5.4390    1.0020   20.5360 C   0  0  0  0  0  0  0  0  0  0  0  0
   10.6290    0.8870   23.5920 C   0  0  0  0  0  0  0  0  0  0  0  0
   12.0260    0.2430   23.4590 C   0  0  0  0  0  0  0  0  0  0  0  0
   13.9190   -1.7350   24.4660 H   0  0  0  0  0  0  0  0  0  0  0  0
   13.3400   -2.7710   23.1620 H   0  0  0  0  0  0  0  0  0  0  0  0
   13.8950   -1.1220   22.7950 H   0  0  0  0  0  0  0  0  0  0  0  0
   11.0800   -2.9420   23.0050 H   0  0  0  0  0  0  0  0  0  0  0  0
   11.3510   -1.6790   21.7780 H   0  0  0  0  0  0  0  0  0  0  0  0
    9.0810   -1.8920   22.4420 H   0  0  0  0  0  0  0  0  0  0  0  0
    9.5040   -1.6060   24.1110 H   0  0  0  0  0  0  0  0  0  0  0  0
    7.7680   -1.4170   21.4360 H   0  0  0  0  0  0  0  0  0  0  0  0
    6.9440   -0.3270   22.4550 H   0  0  0  0  0  0  0  0  0  0  0  0
    8.0300   -0.9550   18.9930 H   0  0  0  0  0  0  0  0  0  0  0  0
    6.2830    0.1520   17.2170 H   0  0  0  0  0  0  0  0  0  0  0  0
    5.1750    1.1410   19.8940 H   0  0  0  0  0  0  0  0  0  0  0  0
    2.9100    2.8110   20.8730 H   0  0  0  0  0  0  0  0  0  0  0  0
    3.4390    3.4360   22.1150 H   0  0  0  0  0  0  0  0  0  0  0  0
    0.2660    1.8360   23.0520 H   0  0  0  0  0  0  0  0  0  0  0  0
   -1.7660    2.9660   24.1380 H   0  0  0  0  0  0  0  0  0  0  0  0
   -1.3200    4.7320   26.0260 H   0  0  0  0  0  0  0  0  0  0  0  0
    1.0130    5.2030   26.6390 H   0  0  0  0  0  0  0  0  0  0  0  0
   10.6000    1.8740   23.1120 H   0  0  0  0  0  0  0  0  0  0  0  0
   10.2970    0.9980   24.6300 H   0  0  0  0  0  0  0  0  0  0  0  0
   12.7890    0.8130   23.9960 H   0  0  0  0  0  0  0  0  0  0  0  0
   12.0170    0.5110   22.3850 H   0  0  0  0  0  0  0  0  0  0  0  0
  1  2  1  0
  2  3  1  0
  3  4  1  0
  4  5  1  0
  5  6  1  0
  6  7  2  0
  6  8  1  0
  8  9  1  0
  9 10  2  0
 10 11  1  0
 11 12  1  0
 12 13  1  0
 13 14  2  0
 14 15  1  0
 15 16  2  0
 16 17  1  0
 17 18  1  0
 18 19  2  0
 18 20  1  0
 20 21  2  0
 21 22  1  0
 22 23  2  0
 23 24  1  0
 20 25  1  0
 24 25  2  0
 25 26  1  0
  9 27  1  0
 12 27  2  0
 16 27  1  0
  5 28  1  0
  2 29  1  0
 28 29  1  0
  1 30  1  0
  1 31  1  0
  1 32  1  0
  3 33  1  0
  3 34  1  0
  4 35  1  0
  4 36  1  0
  8 37  1  0
  8 38  1  0
 10 39  1  0
 11 40  1  0
 14 41  1  0
 15 42  1  0
 17 43  1  0
 21 44  1  0
 22 45  1  0
 23 46  1  0
 24 47  1  0
 28 48  1  0
 28 49  1  0
 29 50  1  0
 29 51  1  0
M  END
