LIG
     RDKit          3D

 62 66  0  0  0  0  0  0  0  0999 V2000
    5.5720    3.8030   30.8520 C   0  0  0  0  0  0  0  0  0  0  0  0
    6.0790    2.6860   29.9860 C   0  0  0  0  0  0  0  0  0  0  0  0
    5.3530    1.5210   29.8320 C   0  0  0  0  0  0  0  0  0  0  0  0
    5.8090    0.4760   29.0440 C   0  0  0  0  0  0  0  0  0  0  0  0
    7.0230    0.5950   28.3850 C   0  0  0  0  0  0  0  0  0  0  0  0
    7.4530   -0.4560   27.6150 O   0  0  0  0  0  0  0  0  0  0  0  0
    8.3750   -0.1600   26.5780 C   0  0  0  0  0  0  0  0  0  0  0  0
    8.7900   -1.4080   25.8100 C   0  0  0  0  0  0  0  0  0  0  0  0
    7.9610   -2.2960   25.6070 O   0  0  0  0  0  0  0  0  0  0  0  0
   10.0690   -1.4770   25.3800 N   0  0  0  0  0  0  0  0  0  0  0  0
   10.6760   -2.6770   24.8000 C   0  0  0  0  0  0  0  0  0  0  0  0
   11.4560   -2.0960   23.2645 C   0  0  0  0  0  0  0  0  0  0  0  0
   10.0140   -1.4540   23.1290 C   0  0  0  0  0  0  0  0  0  0  0  0
    9.8260   -0.0960   22.6220 N   0  0  0  0  0  0  0  0  0  0  0  0
    9.0660    0.2300   21.5610 C   0  0  0  0  0  0  0  0  0  0  0  0
    8.9960    1.3830   21.1430 O   0  0  0  0  0  0  0  0  0  0  0  0
    8.3080   -0.8880   20.8630 C   0  0  0  0  0  0  0  0  0  0  0  0
    7.4330   -0.3020   19.8060 C   0  0  0  0  0  0  0  0  0  0  0  0
    7.6450   -0.3300   18.4600 C   0  0  0  0  0  0  0  0  0  0  0  0
    6.6410    0.3430   17.8150 N   0  0  0  0  0  0  0  0  0  0  0  0
    5.7600    0.8140   18.7420 C   0  0  0  0  0  0  0  0  0  0  0  0
    4.6510    1.5300   18.5060 N   0  0  0  0  0  0  0  0  0  0  0  0
    3.9600    1.8790   19.5990 C   0  0  0  0  0  0  0  0  0  0  0  0
    4.3240    1.5630   20.9050 C   0  0  0  0  0  0  0  0  0  0  0  0
    5.4760    0.8390   21.1280 C   0  0  0  0  0  0  0  0  0  0  0  0
    6.2270    0.4400   20.0170 C   0  0  0  0  0  0  0  0  0  0  0  0
   10.6540    0.8680   23.3430 C   0  0  0  0  0  0  0  0  0  0  0  0
   11.9100    0.1890   23.7105 C   0  0  0  0  0  0  0  0  0  0  0  0
   11.0110   -0.3620   25.5050 C   0  0  0  0  0  0  0  0  0  0  0  0
   12.3730   -1.0925   23.7415 N   0  0  0  0  0  0  0  0  0  0  0  0
   13.4735   -1.1495   23.0840 C   0  0  0  0  0  0  0  0  0  0  0  0
    7.7660    1.7610   28.5270 C   0  0  0  0  0  0  0  0  0  0  0  0
    7.2890    2.7860   29.3270 C   0  0  0  0  0  0  0  0  0  0  0  0
    4.5841    3.5646   31.2593 H   0  0  0  0  0  0  0  0  0  0  0  0
    6.2405    3.9735   31.7027 H   0  0  0  0  0  0  0  0  0  0  0  0
    5.5031    4.7271   30.2691 H   0  0  0  0  0  0  0  0  0  0  0  0
    4.3745    1.4104   30.3335 H   0  0  0  0  0  0  0  0  0  0  0  0
    5.2195   -0.4245   28.9416 H   0  0  0  0  0  0  0  0  0  0  0  0
    9.2511    0.2251   27.0916 H   0  0  0  0  0  0  0  0  0  0  0  0
    8.0107    0.6098   25.9059 H   0  0  0  0  0  0  0  0  0  0  0  0
   11.4763   -2.9923   25.3684 H   0  0  0  0  0  0  0  0  0  0  0  0
   10.0132   -3.3941   24.4903 H   0  0  0  0  0  0  0  0  0  0  0  0
   11.5630   -2.8389   22.7847 H   0  0  0  0  0  0  0  0  0  0  0  0
    9.4849   -1.5664   24.1239 H   0  0  0  0  0  0  0  0  0  0  0  0
    9.4045   -2.1242   22.4544 H   0  0  0  0  0  0  0  0  0  0  0  0
    7.7610   -1.5069   21.5579 H   0  0  0  0  0  0  0  0  0  0  0  0
    9.0492   -1.5325   20.3982 H   0  0  0  0  0  0  0  0  0  0  0  0
    8.4425   -0.7943   17.8632 H   0  0  0  0  0  0  0  0  0  0  0  0
    6.5339    0.4812   16.8285 H   0  0  0  0  0  0  0  0  0  0  0  0
    3.0574    2.4473   19.4092 H   0  0  0  0  0  0  0  0  0  0  0  0
    3.6949    1.8831   21.7347 H   0  0  0  0  0  0  0  0  0  0  0  0
    5.7916    0.5718   22.1411 H   0  0  0  0  0  0  0  0  0  0  0  0
   10.1324    1.2318   24.2144 H   0  0  0  0  0  0  0  0  0  0  0  0
   10.8302    1.6906   22.6564 H   0  0  0  0  0  0  0  0  0  0  0  0
   12.5336    0.8671   24.3539 H   0  0  0  0  0  0  0  0  0  0  0  0
   10.6259    0.5821   25.7738 H   0  0  0  0  0  0  0  0  0  0  0  0
   11.8984   -0.5984   26.0298 H   0  0  0  0  0  0  0  0  0  0  0  0
   13.4605   -1.6427   22.0628 H   0  0  0  0  0  0  0  0  0  0  0  0
   14.3067   -1.6952   23.6178 H   0  0  0  0  0  0  0  0  0  0  0  0
   13.7999   -2.1976   22.8186 H   0  0  0  0  0  0  0  0  0  0  0  0
    8.7078    1.9056   28.0094 H   0  0  0  0  0  0  0  0  0  0  0  0
    7.8876    3.7020   29.4211 H   0  0  0  0  0  0  0  0  0  0  0  0
  1  2  1  0
  2  3  4  0
  3  4  4  0
  4  5  4  0
  5  6  1  0
  6  7  1  0
  7  8  1  0
  8  9  2  0
  8 10  1  0
 10 11  1  0
 11 12  1  0
 12 13  1  0
 13 14  1  0
 14 15  1  0
 15 16  2  0
 15 17  1  0
 17 18  1  0
 18 19  4  0
 19 20  4  0
 20 21  4  0
 21 22  4  0
 22 23  4  0
 23 24  4  0
 24 25  4  0
 25 26  4  0
 14 27  1  0
 27 28  1  0
 28 29  1  0
 28 30  1  0
 30 31  1  0
  5 32  4  0
 32 33  4  0
 33  2  4  0
 29 10  1  0
 30 12  1  0
 26 18  4  0
 26 21  4  0
  1 34  1  0
  1 35  1  0
  1 36  1  0
  3 37  1  0
  4 38  1  0
  7 39  1  0
  7 40  1  0
 11 41  1  0
 11 42  1  0
 12 43  1  0
 13 44  1  0
 13 45  1  0
 17 46  1  0
 17 47  1  0
 19 48  1  0
 20 49  1  0
 23 50  1  0
 24 51  1  0
 25 52  1  0
 27 53  1  0
 27 54  1  0
 28 55  1  0
 29 56  1  0
 29 57  1  0
 31 58  1  0
 31 59  1  0
 31 60  1  0
 32 61  1  0
 33 62  1  0
M  END
