LIG
     RDKit          3D

 47 51  0  0  0  0  0  0  0  0999 V2000
    9.9150   -0.3810   24.9080 C   0  0  0  0  0  0  0  0  0  0  0  0
   10.5395   -0.8925   23.5825 C   0  0  0  0  0  0  0  0  0  0  0  0
   11.5850   -1.6990   23.3300 C   0  0  0  0  0  0  0  0  0  0  0  0
   12.5165   -1.1735   23.1405 N   0  0  0  0  0  0  0  0  0  0  0  0
   13.6955   -0.7845   23.2045 C   0  0  0  0  0  0  0  0  0  0  0  0
   12.8830    1.0330   23.0360 C   0  0  0  0  0  0  0  0  0  0  0  0
   13.4330    2.2640   22.6290 C   0  0  0  0  0  0  0  0  0  0  0  0
   12.7210    3.4490   22.8300 C   0  0  0  0  0  0  0  0  0  0  0  0
   11.4520    3.3830   23.4380 C   0  0  0  0  0  0  0  0  0  0  0  0
   10.4990    4.8830   23.7330 S   0  0  0  0  0  6  0  0  0  0  0  0
   11.4660    6.2570   23.4610 N   0  0  0  0  0  0  0  0  0  0  0  0
    9.9890    4.8060   25.0960 O   0  0  0  0  0  0  0  0  0  0  0  0
    9.2550    4.9160   22.9600 O   0  0  0  0  0  0  0  0  0  0  0  0
   10.7785    1.5185   23.5895 C   0  0  0  0  0  0  0  0  0  0  0  0
   11.8625    0.7220   23.4260 C   0  0  0  0  0  0  0  0  0  0  0  0
    9.8260   -0.0960   22.6220 N   0  0  0  0  0  0  0  0  0  0  0  0
    9.0660    0.2300   21.5610 C   0  0  0  0  0  0  0  0  0  0  0  0
    8.9960    1.3830   21.1430 O   0  0  0  0  0  0  0  0  0  0  0  0
    8.3080   -0.8880   20.8630 C   0  0  0  0  0  0  0  0  0  0  0  0
    7.4330   -0.3020   19.8060 C   0  0  0  0  0  0  0  0  0  0  0  0
    7.6450   -0.3300   18.4600 C   0  0  0  0  0  0  0  0  0  0  0  0
    6.6410    0.3430   17.8150 N   0  0  0  0  0  0  0  0  0  0  0  0
    5.7600    0.8140   18.7420 C   0  0  0  0  0  0  0  0  0  0  0  0
    4.6510    1.5300   18.5060 N   0  0  0  0  0  0  0  0  0  0  0  0
    3.9600    1.8790   19.5990 C   0  0  0  0  0  0  0  0  0  0  0  0
    4.3240    1.5630   20.9050 C   0  0  0  0  0  0  0  0  0  0  0  0
    5.4760    0.8390   21.1280 C   0  0  0  0  0  0  0  0  0  0  0  0
    6.2270    0.4400   20.0170 C   0  0  0  0  0  0  0  0  0  0  0  0
    8.8920   -0.0326   24.7764 H   0  0  0  0  0  0  0  0  0  0  0  0
    9.9079   -1.1781   25.6548 H   0  0  0  0  0  0  0  0  0  0  0  0
    9.0304   -0.9708   25.1618 H   0  0  0  0  0  0  0  0  0  0  0  0
    9.5286   -1.8611   23.4320 H   0  0  0  0  0  0  0  0  0  0  0  0
   11.2731   -2.4423   22.4631 H   0  0  0  0  0  0  0  0  0  0  0  0
   11.6441   -2.5306   24.1828 H   0  0  0  0  0  0  0  0  0  0  0  0
   14.2432   -0.7207   24.1320 H   0  0  0  0  0  0  0  0  0  0  0  0
   14.3465   -0.8304   22.3477 H   0  0  0  0  0  0  0  0  0  0  0  0
   14.4557    2.2776   22.2134 H   0  0  0  0  0  0  0  0  0  0  0  0
   13.1747    4.3905   22.5856 H   0  0  0  0  0  0  0  0  0  0  0  0
   12.2457    5.9750   22.8664 H   0  0  0  0  0  0  0  0  0  0  0  0
   11.5233    6.4009   22.4522 H   0  0  0  0  0  0  0  0  0  0  0  0
    8.9616   -1.5871   20.3734 H   0  0  0  0  0  0  0  0  0  0  0  0
    7.7157   -1.3970   21.6105 H   0  0  0  0  0  0  0  0  0  0  0  0
    8.4431   -0.7958   17.8672 H   0  0  0  0  0  0  0  0  0  0  0  0
    6.5434    0.4813   16.8265 H   0  0  0  0  0  0  0  0  0  0  0  0
    3.0565    2.4448   19.4111 H   0  0  0  0  0  0  0  0  0  0  0  0
    3.6943    1.8830   21.7334 H   0  0  0  0  0  0  0  0  0  0  0  0
    5.7813    0.5704   22.1401 H   0  0  0  0  0  0  0  0  0  0  0  0
  1  2  1  0
  2  3  1  0
  3  4  1  0
  4  5  1  0
  5  6  1  0
  6  7  4  0
  7  8  4  0
  8  9  4  0
  9 10  1  0
 10 11  1  0
 10 12  2  0
 10 13  2  0
  9 14  4  0
 14 15  4  0
 14 16  1  0
 16 17  1  0
 17 18  2  0
 17 19  1  0
 19 20  1  0
 20 21  4  0
 21 22  4  0
 22 23  4  0
 23 24  4  0
 24 25  4  0
 25 26  4  0
 26 27  4  0
 27 28  4  0
 16  2  1  0
 28 20  4  0
 15  4  1  0
 28 23  4  0
 15  6  4  0
  1 29  1  0
  1 30  1  0
  1 31  1  0
  2 32  1  0
  3 33  1  0
  3 34  1  0
  5 35  1  0
  5 36  1  0
  7 37  1  0
  8 38  1  0
 11 39  1  0
 11 40  1  0
 19 41  1  0
 19 42  1  0
 21 43  1  0
 22 44  1  0
 25 45  1  0
 26 46  1  0
 27 47  1  0
M  END
