
     RDKit          3D

 47 51  0  0  0  0  0  0  0  0999 V2000
    9.4430   -0.1930   25.4470 C   0  0  0  0  0  0  0  0  0  0  0  0
    9.5710   -0.5340   23.9990 C   0  0  2  0  0  0  0  0  0  0  0  0
   10.7960   -1.2700   23.7030 C   0  0  0  0  0  0  0  0  0  0  0  0
   11.6190   -0.5860   22.7430 N   0  0  0  0  0  0  0  0  0  0  0  0
   13.1120   -0.4030   22.6430 C   0  0  0  0  0  0  0  0  0  0  0  0
   12.7320    1.0670   22.7640 C   0  0  0  0  0  0  0  0  0  0  0  0
   13.1900    2.3530   22.7730 C   0  0  0  0  0  0  0  0  0  0  0  0
   12.1160    3.4250   23.0070 C   0  0  0  0  0  0  0  0  0  0  0  0
   10.7540    3.0440   23.1850 C   0  0  0  0  0  0  0  0  0  0  0  0
    9.6970    4.4710   23.4600 S   0  0  2  0  0  0  0  0  0  0  0  0
   10.8190    5.7200   23.2550 N   0  0  0  0  0  0  0  0  0  0  0  0
    9.2750    4.6520   24.8290 O   0  0  0  0  0  0  0  0  0  0  0  0
    8.7370    4.5840   22.4080 O   0  0  0  0  0  0  0  0  0  0  0  0
   10.3650    1.5420   23.1110 C   0  0  0  0  0  0  0  0  0  0  0  0
   11.5060    0.7230   22.8900 C   0  0  0  0  0  0  0  0  0  0  0  0
    9.2450    0.7470   23.1890 N   0  0  0  0  0  0  0  0  0  0  0  0
    8.6250    0.5600   21.8830 C   0  0  0  0  0  0  0  0  0  0  0  0
    8.6520    1.6460   20.9460 O   0  0  0  0  0  0  0  0  0  0  0  0
    7.9600   -0.5890   21.3890 C   0  0  0  0  0  0  0  0  0  0  0  0
    7.2510   -0.2990   20.2060 C   0  0  0  0  0  0  0  0  0  0  0  0
    7.3980   -0.6170   18.8850 C   0  0  0  0  0  0  0  0  0  0  0  0
    6.3540   -0.0080   18.0400 N   0  0  0  0  0  0  0  0  0  0  0  0
    5.5140    0.7030   18.8790 C   0  0  0  0  0  0  0  0  0  0  0  0
    4.4320    1.4080   18.5440 N   0  0  0  0  0  0  0  0  0  0  0  0
    3.8340    1.9750   19.6290 C   0  0  0  0  0  0  0  0  0  0  0  0
    4.2570    1.8730   20.9640 C   0  0  0  0  0  0  0  0  0  0  0  0
    5.3960    1.1350   21.2780 C   0  0  0  0  0  0  0  0  0  0  0  0
    6.0020    0.5560   20.1750 C   0  0  0  0  0  0  0  0  0  0  0  0
    9.2860    0.8770   25.5880 H   0  0  0  0  0  0  0  0  0  0  0  0
   10.3600   -0.4720   25.9700 H   0  0  0  0  0  0  0  0  0  0  0  0
    8.5930   -0.7320   25.8710 H   0  0  0  0  0  0  0  0  0  0  0  0
    8.7310   -1.1930   23.7540 H   0  0  0  0  0  0  0  0  0  0  0  0
   10.5960   -2.2820   23.3300 H   0  0  0  0  0  0  0  0  0  0  0  0
   11.3830   -1.3650   24.6260 H   0  0  0  0  0  0  0  0  0  0  0  0
   13.6640   -0.8210   23.4940 H   0  0  0  0  0  0  0  0  0  0  0  0
   13.5140   -0.7040   21.6680 H   0  0  0  0  0  0  0  0  0  0  0  0
   14.1870    2.7050   22.6390 H   0  0  0  0  0  0  0  0  0  0  0  0
   12.3990    4.4780   23.0390 H   0  0  0  0  0  0  0  0  0  0  0  0
   11.7380    5.3860   23.5500 H   0  0  0  0  0  0  0  0  0  0  0  0
   10.5310    6.5920   23.7060 H   0  0  0  0  0  0  0  0  0  0  0  0
    8.7600   -1.3140   21.2540 H   0  0  0  0  0  0  0  0  0  0  0  0
    7.3420   -1.0770   22.1380 H   0  0  0  0  0  0  0  0  0  0  0  0
    8.2270   -1.2460   18.5900 H   0  0  0  0  0  0  0  0  0  0  0  0
    6.2740   -0.0990   17.0230 H   0  0  0  0  0  0  0  0  0  0  0  0
    2.9450    2.5540   19.3880 H   0  0  0  0  0  0  0  0  0  0  0  0
    3.6860    2.3760   21.7360 H   0  0  0  0  0  0  0  0  0  0  0  0
    5.7570    1.0340   22.2960 H   0  0  0  0  0  0  0  0  0  0  0  0
  1  2  1  0
  2  3  1  0
  3  4  1  0
  4  5  1  0
  5  6  1  0
  6  7  1  0
  7  8  2  0
  8  9  1  0
  9 10  1  0
 10 11  1  6
 10 12  2  0
 10 13  2  0
  9 14  2  0
  4 15  1  0
  6 15  2  0
 14 15  1  0
  2 16  1  0
 14 16  1  0
 16 17  1  0
 17 18  2  0
 17 19  1  0
 19 20  1  0
 20 21  2  0
 21 22  1  0
 22 23  1  0
 23 24  1  0
 24 25  2  0
 25 26  1  0
 26 27  2  0
 20 28  1  0
 23 28  2  0
 27 28  1  0
  1 29  1  0
  1 30  1  0
  1 31  1  0
  2 32  1  6
  3 33  1  0
  3 34  1  0
  5 35  1  0
  5 36  1  0
  7 37  1  0
  8 38  1  0
 11 39  1  0
 11 40  1  0
 19 41  1  0
 19 42  1  0
 21 43  1  0
 22 44  1  0
 25 45  1  0
 26 46  1  0
 27 47  1  0
M  END
