
     RDKit          3D

 46 49  0  0  0  0  0  0  0  0999 V2000
   13.3050   -1.1190   22.1930 C   0  0  0  0  0  0  0  0  0  0  0  0
   12.1270   -0.6620   22.8750 N   0  0  0  0  0  0  0  0  0  0  0  0
   10.9950   -1.5970   22.7090 C   0  0  0  0  0  0  0  0  0  0  0  0
    9.8690   -1.1120   23.4000 C   0  0  0  0  0  0  0  0  0  0  0  0
    9.5020    0.1620   23.0650 N   0  0  0  0  0  0  0  0  0  0  0  0
    8.7590    0.3770   21.7990 C   0  0  0  0  0  0  0  0  0  0  0  0
    8.8330    1.6460   21.1710 O   0  0  0  0  0  0  0  0  0  0  0  0
    7.9580   -0.7410   21.2090 C   0  0  0  0  0  0  0  0  0  0  0  0
    7.1160   -0.2950   20.2120 C   0  0  0  0  0  0  0  0  0  0  0  0
    7.4110   -0.6870   18.7990 C   0  0  0  0  0  0  0  0  0  0  0  0
    6.3760   -0.0360   17.9860 N   0  0  0  0  0  0  0  0  0  0  0  0
    5.4570    0.7250   18.8850 C   0  0  0  0  0  0  0  0  0  0  0  0
    4.3910    1.4400   18.4480 N   0  0  0  0  0  0  0  0  0  0  0  0
    3.7210    2.0250   19.4560 C   0  0  0  0  0  0  0  0  0  0  0  0
    4.1200    1.9020   20.9020 C   0  0  0  0  0  0  0  0  0  0  0  0
    5.2160    1.1630   21.2310 C   0  0  0  0  0  0  0  0  0  0  0  0
    5.9420    0.5340   20.2360 C   0  0  0  0  0  0  0  0  0  0  0  0
   10.5240    1.0980   23.1250 C   0  0  0  0  0  0  0  0  0  0  0  0
   10.1580    2.4490   23.2960 C   0  0  0  0  0  0  0  0  0  0  0  0
   11.0780    3.5260   23.3230 C   0  0  0  0  0  0  0  0  0  0  0  0
   10.6190    5.2460   23.5590 S   0  0  1  0  0  0  0  0  0  0  0  0
    9.2170    5.4010   22.6640 N   0  0  0  0  0  0  0  0  0  0  0  0
   10.1830    5.4730   24.9150 O   0  0  0  0  0  0  0  0  0  0  0  0
   11.6190    6.0830   22.9430 O   0  0  0  0  0  0  0  0  0  0  0  0
   12.5020    3.0390   23.1200 C   0  0  0  0  0  0  0  0  0  0  0  0
   12.8180    1.6930   22.9770 C   0  0  0  0  0  0  0  0  0  0  0  0
   11.8370    0.7130   22.9940 C   0  0  0  0  0  0  0  0  0  0  0  0
   13.8880   -1.7630   22.8550 H   0  0  0  0  0  0  0  0  0  0  0  0
   13.0640   -1.6930   21.2940 H   0  0  0  0  0  0  0  0  0  0  0  0
   13.8970   -0.2530   21.9220 H   0  0  0  0  0  0  0  0  0  0  0  0
   11.2580   -2.5810   23.1140 H   0  0  0  0  0  0  0  0  0  0  0  0
   10.7570   -1.7110   21.6440 H   0  0  0  0  0  0  0  0  0  0  0  0
    9.0160   -1.7720   23.2020 H   0  0  0  0  0  0  0  0  0  0  0  0
   10.0440   -1.1830   24.4810 H   0  0  0  0  0  0  0  0  0  0  0  0
    7.5180   -1.4190   21.9390 H   0  0  0  0  0  0  0  0  0  0  0  0
    8.6810   -1.3820   20.6940 H   0  0  0  0  0  0  0  0  0  0  0  0
    8.2120   -1.3050   18.4270 H   0  0  0  0  0  0  0  0  0  0  0  0
    6.2630   -0.0640   16.9830 H   0  0  0  0  0  0  0  0  0  0  0  0
    2.8290    2.6350   19.2530 H   0  0  0  0  0  0  0  0  0  0  0  0
    3.5370    2.3990   21.6820 H   0  0  0  0  0  0  0  0  0  0  0  0
    5.5350    1.0530   22.2690 H   0  0  0  0  0  0  0  0  0  0  0  0
    9.0800    2.5940   23.4020 H   0  0  0  0  0  0  0  0  0  0  0  0
    8.7630    6.2760   22.8820 H   0  0  0  0  0  0  0  0  0  0  0  0
    9.4320    5.2970   21.6690 H   0  0  0  0  0  0  0  0  0  0  0  0
   13.2600    3.8150   23.1090 H   0  0  0  0  0  0  0  0  0  0  0  0
   13.8820    1.5560   22.8620 H   0  0  0  0  0  0  0  0  0  0  0  0
  1  2  1  0
  2  3  1  0
  3  4  1  0
  4  5  1  0
  5  6  1  0
  6  7  2  0
  6  8  1  0
  8  9  1  0
  9 10  2  0
 10 11  1  0
 11 12  1  0
 12 13  1  0
 13 14  2  0
 14 15  1  0
 15 16  2  0
  9 17  1  0
 12 17  2  0
 16 17  1  0
  5 18  1  0
 18 19  1  0
 19 20  2  0
 20 21  1  0
 21 22  1  6
 21 23  2  0
 21 24  2  0
 20 25  1  0
 25 26  2  0
  2 27  1  0
 18 27  2  0
 26 27  1  0
  1 28  1  0
  1 29  1  0
  1 30  1  0
  3 31  1  0
  3 32  1  0
  4 33  1  0
  4 34  1  0
  8 35  1  0
  8 36  1  0
 10 37  1  0
 11 38  1  0
 14 39  1  0
 15 40  1  0
 16 41  1  0
 19 42  1  0
 22 43  1  0
 22 44  1  0
 25 45  1  0
 26 46  1  0
M  END
