
     RDKit          3D

 53 56  0  0  0  0  0  0  0  0999 V2000
   12.9940   -1.3620   21.9650 C   0  0  0  0  0  0  0  0  0  0  0  0
   11.7990   -1.1050   22.7630 N   0  0  0  0  0  0  0  0  0  0  0  0
   11.2360    0.2360   22.6500 C   0  0  0  0  0  0  0  0  0  0  0  0
   10.1680    0.2670   23.5010 C   0  0  0  0  0  0  0  0  0  0  0  0
    9.1130   -0.4680   23.1000 N   0  0  0  0  0  0  0  0  0  0  0  0
    8.6630    0.0050   21.7740 C   0  0  0  0  0  0  0  0  0  0  0  0
    9.0000    1.3100   21.2860 O   0  0  0  0  0  0  0  0  0  0  0  0
    7.8290   -0.9630   21.0340 C   0  0  0  0  0  0  0  0  0  0  0  0
    7.0300   -0.3950   20.0890 C   0  0  0  0  0  0  0  0  0  0  0  0
    7.3600   -0.6910   18.6720 C   0  0  0  0  0  0  0  0  0  0  0  0
    6.3690    0.0570   17.8920 N   0  0  0  0  0  0  0  0  0  0  0  0
    5.4460    0.7830   18.8240 C   0  0  0  0  0  0  0  0  0  0  0  0
    4.4140    1.5650   18.4270 N   0  0  0  0  0  0  0  0  0  0  0  0
    3.7440    2.0910   19.4660 C   0  0  0  0  0  0  0  0  0  0  0  0
    4.1070    1.8420   20.9070 C   0  0  0  0  0  0  0  0  0  0  0  0
    5.1670    1.0430   21.1930 C   0  0  0  0  0  0  0  0  0  0  0  0
    5.8940    0.4690   20.1640 C   0  0  0  0  0  0  0  0  0  0  0  0
    9.4690   -1.7630   23.4880 C   0  0  1  0  0  0  0  0  0  0  0  0
    8.6050   -2.7750   23.9310 N   0  0  0  0  0  0  0  0  0  0  0  0
    9.2960   -3.8080   24.4970 C   0  0  0  0  0  0  0  0  0  0  0  0
    8.6190   -4.9160   24.9990 C   0  0  0  0  0  0  0  0  0  0  0  0
    8.1050   -4.3410   26.2670 C   0  0  2  0  0  0  0  0  0  0  0  0
    7.1150   -5.1330   26.8660 O   0  0  0  0  0  0  0  0  0  0  0  0
    7.6760   -3.0300   26.1340 C   0  0  0  0  0  0  0  0  0  0  0  0
    7.5340   -2.3800   24.8690 C   0  0  0  0  0  0  0  0  0  0  0  0
   10.6520   -2.1020   22.5390 C   0  0  0  0  0  0  0  0  0  0  0  0
   13.5120   -0.4250   21.7550 H   0  0  0  0  0  0  0  0  0  0  0  0
   13.6970   -2.0100   22.4880 H   0  0  0  0  0  0  0  0  0  0  0  0
   12.7180   -1.8310   21.0170 H   0  0  0  0  0  0  0  0  0  0  0  0
   11.9620    1.0270   22.8850 H   0  0  0  0  0  0  0  0  0  0  0  0
   10.8100    0.3660   21.6800 H   0  0  0  0  0  0  0  0  0  0  0  0
    9.8430    1.2940   23.7000 H   0  0  0  0  0  0  0  0  0  0  0  0
   10.5380   -0.1700   24.4180 H   0  0  0  0  0  0  0  0  0  0  0  0
    7.3480   -1.7070   21.6650 H   0  0  0  0  0  0  0  0  0  0  0  0
    8.5380   -1.5620   20.4620 H   0  0  0  0  0  0  0  0  0  0  0  0
    8.1570   -1.3140   18.2830 H   0  0  0  0  0  0  0  0  0  0  0  0
    6.2800    0.1070   16.8850 H   0  0  0  0  0  0  0  0  0  0  0  0
    2.8800    2.7450   19.2970 H   0  0  0  0  0  0  0  0  0  0  0  0
    3.5260    2.2980   21.7140 H   0  0  0  0  0  0  0  0  0  0  0  0
    5.4640    0.8390   22.2240 H   0  0  0  0  0  0  0  0  0  0  0  0
    9.9700   -1.4180   24.3630 H   0  0  0  0  0  0  0  0  0  0  0  0
    9.6480   -3.4640   25.4390 H   0  0  0  0  0  0  0  0  0  0  0  0
   10.1660   -3.9160   23.8700 H   0  0  0  0  0  0  0  0  0  0  0  0
    7.8200   -5.4580   24.5140 H   0  0  0  0  0  0  0  0  0  0  0  0
    9.3470   -5.6970   25.2500 H   0  0  0  0  0  0  0  0  0  0  0  0
    8.8880   -4.4050   27.0030 H   0  0  0  0  0  0  0  0  0  0  0  0
    7.5230   -5.6160   27.6080 H   0  0  0  0  0  0  0  0  0  0  0  0
    8.3860   -2.4440   26.7130 H   0  0  0  0  0  0  0  0  0  0  0  0
    6.7250   -2.9280   26.6730 H   0  0  0  0  0  0  0  0  0  0  0  0
    6.5750   -2.6980   24.4420 H   0  0  0  0  0  0  0  0  0  0  0  0
    7.4600   -1.2970   24.8640 H   0  0  0  0  0  0  0  0  0  0  0  0
   10.3020   -2.0620   21.5110 H   0  0  0  0  0  0  0  0  0  0  0  0
   11.0350   -3.1070   22.7190 H   0  0  0  0  0  0  0  0  0  0  0  0
  1  2  1  0
  2  3  1  0
  3  4  1  0
  4  5  1  0
  5  6  1  0
  6  7  2  0
  6  8  1  0
  8  9  1  0
  9 10  2  0
 10 11  1  0
 11 12  1  0
 12 13  1  0
 13 14  2  0
 14 15  1  0
 15 16  2  0
  9 17  1  0
 12 17  2  0
 16 17  1  0
  5 18  1  0
 18 19  1  0
 19 20  1  0
 20 21  1  0
 21 22  1  0
 22 23  1  0
 22 24  1  0
 19 25  1  0
 24 25  1  0
  2 26  1  0
 18 26  1  0
  1 27  1  0
  1 28  1  0
  1 29  1  0
  3 30  1  0
  3 31  1  0
  4 32  1  0
  4 33  1  0
  8 34  1  0
  8 35  1  0
 10 36  1  0
 11 37  1  0
 14 38  1  0
 15 39  1  0
 16 40  1  0
 18 41  1  1
 20 42  1  0
 20 43  1  0
 21 44  1  0
 21 45  1  0
 22 46  1  1
 23 47  1  0
 24 48  1  0
 24 49  1  0
 25 50  1  0
 25 51  1  0
 26 52  1  0
 26 53  1  0
M  END
