LIG
     RDKit          3D

 45 47  0  0  0  0  0  0  0  0999 V2000
    7.2200  -17.5470   -3.0980 O   0  0  0  0  0  0  0  0  0  0  0  0
    7.6780  -18.6420   -3.0710 C   0  0  0  0  0  0  0  0  0  0  0  0
    8.7910  -19.0010   -4.0580 C   0  0  0  0  0  0  0  0  0  0  0  0
    9.2980  -17.7800   -4.6560 N   0  0  0  0  0  0  0  0  0  0  0  0
   10.0060  -16.8600   -4.0260 C   0  0  0  0  0  0  0  0  0  0  0  0
   10.2880  -15.8540   -4.9280 C   0  0  0  0  0  0  0  0  0  0  0  0
    9.7040  -16.2230   -6.1290 C   0  0  0  0  0  0  0  0  0  0  0  0
    9.1090  -17.3890   -5.9500 N   0  0  0  0  0  0  0  0  0  0  0  0
    7.1780  -19.6140   -2.1190 N   0  0  0  0  0  0  0  0  0  0  0  0
    6.3495  -19.6190   -1.3750 C   0  0  0  0  0  0  0  0  0  0  0  0
    5.3795  -20.5255   -0.8065 C   0  0  0  0  0  0  0  0  0  0  0  0
    5.8635  -21.7965   -0.7020 O   0  0  0  0  0  0  0  0  0  0  0  0
    7.1790  -21.9430   -1.0540 C   0  0  1  0  0  0  0  0  0  0  0  0
    7.7520  -23.3270   -1.1875 C   0  0  0  0  0  0  0  0  0  0  0  0
    9.0000  -23.3000   -0.0340 N   0  0  0  0  0  0  0  0  0  0  0  0
    9.4810  -24.6770    0.2020 C   0  0  0  0  0  0  0  0  0  0  0  0
   10.4520  -24.7780    1.4210 C   0  0  0  0  0  0  0  0  0  0  0  0
   11.5930  -23.9790    1.4950 C   0  0  0  0  0  0  0  0  0  0  0  0
   12.4420  -24.1020    2.5710 C   0  0  0  0  0  0  0  0  0  0  0  0
   12.1580  -25.0160    3.5810 C   0  0  0  0  0  0  0  0  0  0  0  0
   11.0290  -25.8120    3.5000 C   0  0  0  0  0  0  0  0  0  0  0  0
   10.7350  -26.7040    4.4690 F   0  0  0  0  0  0  0  0  0  0  0  0
   10.1740  -25.6950    2.4210 C   0  0  0  0  0  0  0  0  0  0  0  0
    7.6445  -20.8965   -1.9140 C   0  0  0  0  0  0  0  0  0  0  0  0
    8.4433  -19.6743   -4.8249 H   0  0  0  0  0  0  0  0  0  0  0  0
    9.6035  -19.4657   -3.5143 H   0  0  0  0  0  0  0  0  0  0  0  0
   10.2775  -16.9487   -2.9652 H   0  0  0  0  0  0  0  0  0  0  0  0
   10.8725  -14.9513   -4.7128 H   0  0  0  0  0  0  0  0  0  0  0  0
    9.6815  -15.7333   -7.0690 H   0  0  0  0  0  0  0  0  0  0  0  0
    5.6264  -18.6109   -1.6403 H   0  0  0  0  0  0  0  0  0  0  0  0
    6.7392  -19.0150   -0.3194 H   0  0  0  0  0  0  0  0  0  0  0  0
    4.4624  -20.5627   -1.4261 H   0  0  0  0  0  0  0  0  0  0  0  0
    5.0463  -20.1935    0.1980 H   0  0  0  0  0  0  0  0  0  0  0  0
    7.6844  -21.5700    0.0337 H   0  0  0  0  0  0  0  0  0  0  0  0
    7.1519  -24.1102   -0.9003 H   0  0  0  0  0  0  0  0  0  0  0  0
    8.2991  -23.4587   -2.0620 H   0  0  0  0  0  0  0  0  0  0  0  0
    8.5811  -22.9143    0.7681 H   0  0  0  0  0  0  0  0  0  0  0  0
   10.0165  -25.0529   -0.6840 H   0  0  0  0  0  0  0  0  0  0  0  0
    8.6566  -25.3803    0.3805 H   0  0  0  0  0  0  0  0  0  0  0  0
   11.8159  -23.2661    0.7041 H   0  0  0  0  0  0  0  0  0  0  0  0
   13.3446  -23.4911    2.6358 H   0  0  0  0  0  0  0  0  0  0  0  0
   12.8255  -25.1156    4.4392 H   0  0  0  0  0  0  0  0  0  0  0  0
    9.2959  -26.3375    2.3672 H   0  0  0  0  0  0  0  0  0  0  0  0
    8.8084  -20.7259   -1.6871 H   0  0  0  0  0  0  0  0  0  0  0  0
    7.8375  -21.3710   -3.0107 H   0  0  0  0  0  0  0  0  0  0  0  0
  1  2  2  0
  2  3  1  0
  3  4  1  0
  4  5  4  0
  5  6  4  0
  6  7  4  0
  7  8  4  0
  2  9  1  0
  9 10  1  0
 10 11  1  0
 11 12  1  0
 12 13  1  0
 13 14  1  0
 14 15  1  0
 15 16  1  0
 16 17  1  0
 17 18  4  0
 18 19  4  0
 19 20  4  0
 20 21  4  0
 21 22  1  0
 21 23  4  0
 13 24  1  0
  8  4  4  0
 24  9  1  0
 23 17  4  0
  3 25  1  0
  3 26  1  0
  5 27  1  0
  6 28  1  0
  7 29  1  0
 10 30  1  0
 10 31  1  0
 11 32  1  0
 11 33  1  0
 13 34  1  1
 14 35  1  0
 14 36  1  0
 15 37  1  0
 16 38  1  0
 16 39  1  0
 18 40  1  0
 19 41  1  0
 20 42  1  0
 23 43  1  0
 24 44  1  0
 24 45  1  0
M  END
