
     RDKit          3D

 36 37  0  0  0  0  0  0  0  0999 V2000
   21.5380   16.4610    7.7720 C   0  0  0  0  0  0  0  0  0  0  0  0
   21.1860   15.0380    7.6730 C   0  0  0  0  0  0  0  0  0  0  0  0
   20.9470   13.6440    7.4410 C   0  0  0  0  0  0  0  0  0  0  0  0
   20.0330   13.0640    8.3610 O   0  0  0  0  0  0  0  0  0  0  0  0
   21.4170   12.5930    6.4590 C   0  0  0  0  0  0  0  0  0  0  0  0
   22.3210   13.0760    5.4720 C   0  0  0  0  0  0  0  0  0  0  0  0
   22.6750   14.3570    5.4730 C   0  0  0  0  0  0  0  0  0  0  0  0
   22.1150   15.2960    6.5450 C   0  0  0  0  0  0  0  0  0  0  0  0
   22.7230   16.5790    6.2210 C   0  0  0  0  0  0  0  0  0  0  0  0
   21.8450   17.6410    5.9000 N   0  0  0  0  0  0  0  0  0  0  0  0
   21.3340   18.6050    6.7960 C   0  0  0  0  0  0  0  0  0  0  0  0
   20.6060   19.8530    6.3170 C   0  0  0  0  0  0  0  0  0  0  0  0
   20.1090   19.8140    5.1920 O   0  0  0  0  0  0  0  0  0  0  0  0
   21.0090   19.2590    4.1950 C   0  0  1  0  0  0  0  0  0  0  0  0
   22.2300   19.9290    4.1900 C   0  0  0  0  0  0  0  0  0  0  0  0
   22.0460   21.1410    4.3250 O   0  0  0  0  0  0  0  0  0  0  0  0
   22.1620   18.3440    4.6210 C   0  0  0  0  0  0  0  0  0  0  0  0
   20.8640   17.0760    7.1780 H   0  0  0  0  0  0  0  0  0  0  0  0
   22.5640   16.6040    7.4320 H   0  0  0  0  0  0  0  0  0  0  0  0
   21.4550   16.7650    8.8170 H   0  0  0  0  0  0  0  0  0  0  0  0
   19.4550   13.7760    8.6910 H   0  0  0  0  0  0  0  0  0  0  0  0
   21.1510   11.5460    6.4130 H   0  0  0  0  0  0  0  0  0  0  0  0
   22.6390   12.3000    4.7810 H   0  0  0  0  0  0  0  0  0  0  0  0
   23.3620   14.7450    4.7180 H   0  0  0  0  0  0  0  0  0  0  0  0
   23.4270   16.4140    5.3990 H   0  0  0  0  0  0  0  0  0  0  0  0
   23.2910   16.9160    7.0900 H   0  0  0  0  0  0  0  0  0  0  0  0
   20.6250   18.1030    7.4660 H   0  0  0  0  0  0  0  0  0  0  0  0
   22.1620   18.9280    7.4370 H   0  0  0  0  0  0  0  0  0  0  0  0
   19.8340   20.2670    6.9620 H   0  0  0  0  0  0  0  0  0  0  0  0
   21.3690   20.6370    6.2730 H   0  0  0  0  0  0  0  0  0  0  0  0
   20.6120   19.1280    3.1810 H   0  0  0  0  0  0  0  0  0  0  0  0
   22.7520   19.7610    3.2450 H   0  0  0  0  0  0  0  0  0  0  0  0
   22.8330   19.6030    5.0460 H   0  0  0  0  0  0  0  0  0  0  0  0
   21.6900   21.2440    5.2290 H   0  0  0  0  0  0  0  0  0  0  0  0
   23.1230   18.8550    4.7630 H   0  0  0  0  0  0  0  0  0  0  0  0
   22.4110   17.5610    3.8930 H   0  0  0  0  0  0  0  0  0  0  0  0
  1  2  1  0
  2  3  2  0
  3  4  1  0
  3  5  1  0
  5  6  2  0
  6  7  1  0
  2  8  1  0
  7  8  2  0
  8  9  1  0
  9 10  1  0
 10 11  1  0
 11 12  1  0
 12 13  1  0
 13 14  1  0
 14 15  1  0
 15 16  1  0
 10 17  1  0
 14 17  1  0
  1 18  1  0
  1 19  1  0
  1 20  1  0
  4 21  1  0
  5 22  1  0
  6 23  1  0
  7 24  1  0
  9 25  1  0
  9 26  1  0
 11 27  1  0
 11 28  1  0
 12 29  1  0
 12 30  1  0
 14 31  1  6
 15 32  1  0
 15 33  1  0
 16 34  1  0
 17 35  1  0
 17 36  1  0
M  END
