
     RDKit          3D

 48 50  0  0  0  0  0  0  0  0999 V2000
   25.4430  -20.1820   19.2900 C   0  0  0  0  0  0  0  0  0  0  0  0
   24.4740  -20.7530   20.1470 O   0  0  0  0  0  0  0  0  0  0  0  0
   23.8630  -21.8320   19.5710 C   0  0  0  0  0  0  0  0  0  0  0  0
   24.3640  -22.2420   18.3200 O   0  0  0  0  0  0  0  0  0  0  0  0
   22.8300  -22.4380   20.2270 N   0  0  0  0  0  0  0  0  0  0  0  0
   22.5300  -22.3190   21.6790 C   0  0  0  0  0  0  0  0  0  0  0  0
   21.4950  -22.8450   22.0920 O   0  0  0  0  0  0  0  0  0  0  0  0
   23.3060  -21.5740   22.5770 N   0  0  0  0  0  0  0  0  0  0  0  0
   22.7800  -21.3600   23.9440 C   0  0  0  0  0  0  0  0  0  0  0  0
   22.6250  -19.8950   24.1950 C   0  0  0  0  0  0  0  0  0  0  0  0
   23.7780  -19.0510   23.9220 N   0  0  0  0  0  0  0  0  0  0  0  0
   23.4120  -17.6420   24.1700 C   0  0  0  0  0  0  0  0  0  0  0  0
   24.2820  -19.4340   22.6200 C   0  0  0  0  0  0  0  0  0  0  0  0
   24.4500  -20.8300   22.3360 C   0  0  0  0  0  0  0  0  0  0  0  0
   22.2980  -23.4840   19.4060 C   0  0  0  0  0  0  0  0  0  0  0  0
   22.2780  -25.0520   20.1010 S   0  0  0  0  0  0  0  0  0  0  0  0
   21.5740  -25.7000   18.7060 C   0  0  0  0  0  0  0  0  0  0  0  0
   21.2300  -27.0370   18.5460 C   0  0  0  0  0  0  0  0  0  0  0  0
   21.3600  -24.7950   17.7350 N   0  0  0  0  0  0  0  0  0  0  0  0
   21.7390  -23.5600   18.0930 C   0  0  0  0  0  0  0  0  0  0  0  0
   21.5100  -22.5650   17.1300 C   0  0  0  0  0  0  0  0  0  0  0  0
   21.9420  -22.7510   15.7920 C   0  0  0  0  0  0  0  0  0  0  0  0
   21.7100  -21.7950   14.7710 C   0  0  0  0  0  0  0  0  0  0  0  0
   20.9760  -20.5490   15.1760 C   0  0  0  0  0  0  0  0  0  0  0  0
   20.5750  -20.3860   16.4650 C   0  0  0  0  0  0  0  0  0  0  0  0
   20.8290  -21.3610   17.4300 C   0  0  0  0  0  0  0  0  0  0  0  0
   26.3180  -20.8400   19.2880 H   0  0  0  0  0  0  0  0  0  0  0  0
   25.0650  -20.1100   18.2650 H   0  0  0  0  0  0  0  0  0  0  0  0
   25.7410  -19.1930   19.6420 H   0  0  0  0  0  0  0  0  0  0  0  0
   21.8150  -21.8660   24.0500 H   0  0  0  0  0  0  0  0  0  0  0  0
   23.4260  -21.7900   24.7030 H   0  0  0  0  0  0  0  0  0  0  0  0
   21.8180  -19.6610   23.5460 H   0  0  0  0  0  0  0  0  0  0  0  0
   22.2250  -19.6100   25.1660 H   0  0  0  0  0  0  0  0  0  0  0  0
   24.2980  -16.9990   24.1270 H   0  0  0  0  0  0  0  0  0  0  0  0
   22.6990  -17.3040   23.4270 H   0  0  0  0  0  0  0  0  0  0  0  0
   22.9390  -17.5110   25.1420 H   0  0  0  0  0  0  0  0  0  0  0  0
   25.1680  -18.8240   22.4410 H   0  0  0  0  0  0  0  0  0  0  0  0
   23.5290  -19.1050   21.9070 H   0  0  0  0  0  0  0  0  0  0  0  0
   25.2170  -21.3020   22.9590 H   0  0  0  0  0  0  0  0  0  0  0  0
   24.7750  -21.0450   21.3170 H   0  0  0  0  0  0  0  0  0  0  0  0
   22.0850  -27.7120   18.5160 H   0  0  0  0  0  0  0  0  0  0  0  0
   20.7210  -27.2860   17.6090 H   0  0  0  0  0  0  0  0  0  0  0  0
   20.5870  -27.4370   19.3340 H   0  0  0  0  0  0  0  0  0  0  0  0
   22.4620  -23.6990   15.6190 H   0  0  0  0  0  0  0  0  0  0  0  0
   22.0530  -21.9670   13.7440 H   0  0  0  0  0  0  0  0  0  0  0  0
   20.7650  -19.7730   14.4330 H   0  0  0  0  0  0  0  0  0  0  0  0
   20.0510  -19.4550   16.6730 H   0  0  0  0  0  0  0  0  0  0  0  0
   20.4910  -21.1960   18.4330 H   0  0  0  0  0  0  0  0  0  0  0  0
  1  2  1  0
  2  3  1  0
  3  4  2  0
  3  5  1  0
  5  6  1  0
  6  7  2  0
  6  8  1  0
  8  9  1  0
  9 10  1  0
 10 11  1  0
 11 12  1  0
 11 13  1  0
  8 14  1  0
 13 14  1  0
  5 15  1  0
 15 16  1  0
 16 17  1  0
 17 18  1  0
 17 19  2  0
 15 20  2  0
 19 20  1  0
 20 21  1  0
 21 22  2  0
 22 23  1  0
 23 24  2  0
 24 25  1  0
 21 26  1  0
 25 26  2  0
  1 27  1  0
  1 28  1  0
  1 29  1  0
  9 30  1  0
  9 31  1  0
 10 32  1  0
 10 33  1  0
 12 34  1  0
 12 35  1  0
 12 36  1  0
 13 37  1  0
 13 38  1  0
 14 39  1  0
 14 40  1  0
 18 41  1  0
 18 42  1  0
 18 43  1  0
 22 44  1  0
 23 45  1  0
 24 46  1  0
 25 47  1  0
 26 48  1  0
M  END
