
     RDKit          3D

 44 46  0  0  0  0  0  0  0  0999 V2000
   13.7110   -1.5260   21.0920 N   0  0  0  0  0  0  0  0  0  0  0  0
   13.1060   -1.1170   21.9710 C   0  0  0  0  0  0  0  0  0  0  0  0
   12.0540   -0.6250   22.8950 C   0  0  0  0  0  0  0  0  0  0  0  0
   11.2810   -1.6390   23.4230 C   0  0  0  0  0  0  0  0  0  0  0  0
   10.1480   -1.2610   24.3280 C   0  0  0  0  0  0  0  0  0  0  0  0
    9.9950    0.1950   24.5160 C   0  0  0  0  0  0  0  0  0  0  0  0
    9.0700    0.8000   25.2800 C   0  0  0  0  0  0  0  0  0  0  0  0
    7.9060    0.3060   24.9000 N   0  0  0  0  0  0  0  0  0  0  0  0
    7.3750    1.1360   23.9740 C   0  0  0  0  0  0  0  0  0  0  0  0
    7.9410    2.0380   23.3620 O   0  0  0  0  0  0  0  0  0  0  0  0
    5.9410    0.9410   23.6780 N   0  0  0  0  0  0  0  0  0  0  0  0
    5.1410    0.9490   24.9430 C   0  0  0  0  0  0  0  0  0  0  0  0
    3.6550    0.9500   24.8310 C   0  0  0  0  0  0  0  0  0  0  0  0
    3.1550    1.3430   23.7790 O   0  0  0  0  0  0  0  0  0  0  0  0
    4.0640    2.0510   22.9090 C   0  0  0  0  0  0  0  0  0  0  0  0
    5.2720    1.4820   22.5470 C   0  0  0  0  0  0  0  0  0  0  0  0
   10.7790    1.2010   23.9410 C   0  0  0  0  0  0  0  0  0  0  0  0
   10.5110    2.5680   24.1220 C   0  0  0  0  0  0  0  0  0  0  0  0
   11.3010    3.5730   23.5570 C   0  0  0  0  0  0  0  0  0  0  0  0
   10.8490    5.3330   23.7950 S   0  0  2  0  0  0  0  0  0  0  0  0
    9.4620    5.4650   22.8640 N   0  0  0  0  0  0  0  0  0  0  0  0
   11.8140    6.1780   23.1380 O   0  0  0  0  0  0  0  0  0  0  0  0
   10.3490    5.6460   25.1100 O   0  0  0  0  0  0  0  0  0  0  0  0
   12.4300    3.2360   22.8130 C   0  0  0  0  0  0  0  0  0  0  0  0
   12.6190    1.7290   22.6760 C   0  0  0  0  0  0  0  0  0  0  0  0
   11.8320    0.7730   23.1670 C   0  0  0  0  0  0  0  0  0  0  0  0
   11.4770   -2.6880   23.1940 H   0  0  0  0  0  0  0  0  0  0  0  0
    9.5040   -1.9980   24.7870 H   0  0  0  0  0  0  0  0  0  0  0  0
    9.2180    0.5510   26.3360 H   0  0  0  0  0  0  0  0  0  0  0  0
    9.0800    1.8900   25.2010 H   0  0  0  0  0  0  0  0  0  0  0  0
    7.9080   -0.6630   24.6190 H   0  0  0  0  0  0  0  0  0  0  0  0
    5.4060    1.8700   25.4780 H   0  0  0  0  0  0  0  0  0  0  0  0
    5.5980    0.1540   25.5230 H   0  0  0  0  0  0  0  0  0  0  0  0
    3.2270    1.5500   25.6440 H   0  0  0  0  0  0  0  0  0  0  0  0
    3.2970   -0.0710   25.0260 H   0  0  0  0  0  0  0  0  0  0  0  0
    4.2280    3.0210   23.3850 H   0  0  0  0  0  0  0  0  0  0  0  0
    3.5260    2.2380   21.9780 H   0  0  0  0  0  0  0  0  0  0  0  0
    5.0860    0.6610   21.8430 H   0  0  0  0  0  0  0  0  0  0  0  0
    5.9350    2.1740   22.0250 H   0  0  0  0  0  0  0  0  0  0  0  0
    9.6480    2.8350   24.7180 H   0  0  0  0  0  0  0  0  0  0  0  0
    8.7990    4.7530   23.1720 H   0  0  0  0  0  0  0  0  0  0  0  0
    9.7070    5.3800   21.8670 H   0  0  0  0  0  0  0  0  0  0  0  0
   13.0530    4.0400   22.4040 H   0  0  0  0  0  0  0  0  0  0  0  0
   13.4460    1.4040   22.1430 H   0  0  0  0  0  0  0  0  0  0  0  0
  1  2  3  0
  2  3  1  0
  3  4  2  0
  4  5  1  0
  5  6  2  0
  6  7  1  0
  7  8  1  0
  8  9  1  0
  9 10  2  0
  9 11  1  0
 11 12  1  0
 12 13  1  0
 13 14  1  0
 14 15  1  0
 11 16  1  0
 15 16  1  0
  6 17  1  0
 17 18  1  0
 18 19  2  0
 19 20  1  0
 20 21  1  6
 20 22  2  0
 20 23  2  0
 19 24  1  0
 24 25  2  0
  3 26  1  0
 17 26  2  0
 25 26  1  0
  4 27  1  0
  5 28  1  0
  7 29  1  0
  7 30  1  0
  8 31  1  0
 12 32  1  0
 12 33  1  0
 13 34  1  0
 13 35  1  0
 15 36  1  0
 15 37  1  0
 16 38  1  0
 16 39  1  0
 18 40  1  0
 21 41  1  0
 21 42  1  0
 24 43  1  0
 25 44  1  0
M  END
