
     RDKit          3D

 45 47  0  0  0  0  0  0  0  0999 V2000
   12.1490   -1.5480   24.5710 C   0  0  0  0  0  0  0  0  0  0  0  0
   11.4150   -0.7970   23.5610 O   0  0  0  0  0  0  0  0  0  0  0  0
   12.3290    0.0140   22.9840 C   0  0  0  0  0  0  0  0  0  0  0  0
   13.1240   -0.7480   22.4920 C   0  0  0  0  0  0  0  0  0  0  0  0
   13.4500   -2.1680   22.2270 C   0  0  0  0  0  0  0  0  0  0  0  0
   13.2600   -2.6160   20.9820 N   0  0  0  0  0  0  0  0  0  0  0  0
   11.9090   -1.2920   23.1410 C   0  0  0  0  0  0  0  0  0  0  0  0
   10.7790   -0.4810   23.7650 C   0  0  0  0  0  0  0  0  0  0  0  0
   10.9080    1.0940   23.7100 C   0  0  0  0  0  0  0  0  0  0  0  0
   10.1010    2.1780   24.0910 C   0  0  0  0  0  0  0  0  0  0  0  0
    8.8710    1.8760   24.6710 N   0  0  0  0  0  0  0  0  0  0  0  0
    7.6110    2.1750   24.0150 C   0  0  0  0  0  0  0  0  0  0  0  0
    7.4720    3.2650   23.5010 O   0  0  0  0  0  0  0  0  0  0  0  0
    6.6160    1.2030   23.9720 N   0  0  0  0  0  0  0  0  0  0  0  0
    5.8430    1.0070   22.7260 C   0  0  0  0  0  0  0  0  0  0  0  0
    4.5910    1.5720   22.6240 C   0  0  0  0  0  0  0  0  0  0  0  0
    3.8630    1.3500   23.8400 O   0  0  0  0  0  0  0  0  0  0  0  0
    4.5170    0.4220   24.7300 C   0  0  0  0  0  0  0  0  0  0  0  0
    5.7640    0.9200   25.1460 C   0  0  0  0  0  0  0  0  0  0  0  0
   10.6580    3.5220   23.7840 C   0  0  0  0  0  0  0  0  0  0  0  0
    9.9820    5.1960   24.0320 S   0  0  2  0  0  0  0  0  0  0  0  0
    8.7810    5.3100   22.8660 N   0  0  0  0  0  0  0  0  0  0  0  0
   10.9660    6.1750   23.6110 O   0  0  0  0  0  0  0  0  0  0  0  0
    9.2650    5.3290   25.2710 O   0  0  0  0  0  0  0  0  0  0  0  0
   11.9280    3.7140   23.1770 C   0  0  0  0  0  0  0  0  0  0  0  0
   12.6890    2.4790   22.8370 C   0  0  0  0  0  0  0  0  0  0  0  0
   12.1240    1.2940   23.1140 C   0  0  0  0  0  0  0  0  0  0  0  0
   12.3080   -0.8710   25.4150 H   0  0  0  0  0  0  0  0  0  0  0  0
   11.5730   -2.4070   24.9290 H   0  0  0  0  0  0  0  0  0  0  0  0
   13.1300   -1.8860   24.2200 H   0  0  0  0  0  0  0  0  0  0  0  0
   11.8000   -2.3830   23.1620 H   0  0  0  0  0  0  0  0  0  0  0  0
    9.9030   -0.9540   24.2150 H   0  0  0  0  0  0  0  0  0  0  0  0
    8.8020    1.0420   25.2310 H   0  0  0  0  0  0  0  0  0  0  0  0
    5.7580   -0.0710   22.5480 H   0  0  0  0  0  0  0  0  0  0  0  0
    6.4740    1.4060   21.9250 H   0  0  0  0  0  0  0  0  0  0  0  0
    4.7110    2.6570   22.5460 H   0  0  0  0  0  0  0  0  0  0  0  0
    3.9250    1.3010   21.8140 H   0  0  0  0  0  0  0  0  0  0  0  0
    3.7810    0.2320   25.5030 H   0  0  0  0  0  0  0  0  0  0  0  0
    4.5420   -0.5090   24.1680 H   0  0  0  0  0  0  0  0  0  0  0  0
    5.7110    1.8290   25.7380 H   0  0  0  0  0  0  0  0  0  0  0  0
    6.3710    0.2360   25.7310 H   0  0  0  0  0  0  0  0  0  0  0  0
    8.2760    6.1840   23.0090 H   0  0  0  0  0  0  0  0  0  0  0  0
    9.2090    5.2390   21.9260 H   0  0  0  0  0  0  0  0  0  0  0  0
   12.2500    4.7490   23.0030 H   0  0  0  0  0  0  0  0  0  0  0  0
   13.6480    2.6180   22.3850 H   0  0  0  0  0  0  0  0  0  0  0  0
  1  2  1  0
  2  3  1  0
  3  4  2  0
  4  5  1  0
  5  6  3  0
  4  7  1  0
  7  8  2  0
  8  9  1  0
  9 10  1  0
 10 11  1  0
 11 12  1  0
 12 13  2  0
 12 14  1  0
 14 15  1  0
 15 16  1  0
 16 17  1  0
 17 18  1  0
 14 19  1  0
 18 19  1  0
 10 20  2  0
 20 21  1  0
 21 22  1  6
 21 23  2  0
 21 24  2  0
 20 25  1  0
 25 26  2  0
  3 27  1  0
  9 27  2  0
 26 27  1  0
  1 28  1  0
  1 29  1  0
  1 30  1  0
  7 31  1  0
  8 32  1  0
 11 33  1  0
 15 34  1  0
 15 35  1  0
 16 36  1  0
 16 37  1  0
 18 38  1  0
 18 39  1  0
 19 40  1  0
 19 41  1  0
 22 42  1  0
 22 43  1  0
 25 44  1  0
 26 45  1  0
M  END
