
     RDKit          3D

 56 58  0  0  0  0  0  0  0  0999 V2000
    9.0890    6.6720   22.5710 C   0  0  0  0  0  0  0  0  0  0  0  0
   10.3160    6.2350   23.3230 C   0  0  0  0  0  0  0  0  0  0  0  0
   10.4130    6.3350   24.5430 O   0  0  0  0  0  0  0  0  0  0  0  0
   11.2940    5.7210   22.5050 N   0  0  0  0  0  0  0  0  0  0  0  0
   12.4580    5.0420   23.0530 C   0  0  0  0  0  0  0  0  0  0  0  0
   12.6540    3.6530   22.4320 C   0  0  0  0  0  0  0  0  0  0  0  0
   11.7330    2.6140   23.0020 C   0  0  1  0  0  0  0  0  0  0  0  0
   10.3940    2.8130   22.8020 C   0  0  0  0  0  0  0  0  0  0  0  0
    9.5230    1.6300   23.1990 C   0  0  2  0  0  0  0  0  0  0  0  0
    8.7550    0.9870   23.7760 N   0  0  0  0  0  0  0  0  0  0  0  0
    7.6690    1.7060   24.1720 C   0  0  0  0  0  0  0  0  0  0  0  0
    7.8050    2.7870   24.7100 O   0  0  0  0  0  0  0  0  0  0  0  0
    6.4520    1.2110   23.8960 N   0  0  0  0  0  0  0  0  0  0  0  0
    5.8870    1.9450   22.8970 C   0  0  0  0  0  0  0  0  0  0  0  0
    4.5210    1.4240   22.4940 C   0  0  0  0  0  0  0  0  0  0  0  0
    3.7170    1.1830   23.6500 O   0  0  0  0  0  0  0  0  0  0  0  0
    4.4110    0.4230   24.6400 C   0  0  0  0  0  0  0  0  0  0  0  0
    5.6520    0.9580   24.9940 C   0  0  0  0  0  0  0  0  0  0  0  0
   10.5340    0.5510   22.7950 C   0  0  2  0  0  0  0  0  0  0  0  0
   10.5000   -0.6520   23.4850 C   0  0  0  0  0  0  0  0  0  0  0  0
   11.2130   -1.6870   22.9290 C   0  0  0  0  0  0  0  0  0  0  0  0
   12.6510   -1.2480   22.8600 C   0  0  1  0  0  0  0  0  0  0  0  0
   13.2620   -1.4130   21.6580 C   0  0  0  0  0  0  0  0  0  0  0  0
   13.7280   -1.5450   20.6350 N   0  0  0  0  0  0  0  0  0  0  0  0
   12.8690    0.2230   23.3460 C   0  0  0  0  0  0  0  0  0  0  0  0
   11.9520    1.1790   22.8420 C   0  0  2  0  0  0  0  0  0  0  0  0
    8.4680    5.8220   22.2750 H   0  0  0  0  0  0  0  0  0  0  0  0
    8.4910    7.3290   23.2080 H   0  0  0  0  0  0  0  0  0  0  0  0
    9.3960    7.2110   21.6750 H   0  0  0  0  0  0  0  0  0  0  0  0
   11.0120    5.5090   21.5470 H   0  0  0  0  0  0  0  0  0  0  0  0
   12.3440    4.9760   24.1400 H   0  0  0  0  0  0  0  0  0  0  0  0
   13.3270    5.6790   22.8500 H   0  0  0  0  0  0  0  0  0  0  0  0
   12.4730    3.7430   21.3550 H   0  0  0  0  0  0  0  0  0  0  0  0
   13.6940    3.3300   22.5480 H   0  0  0  0  0  0  0  0  0  0  0  0
   11.8230    2.8330   24.0240 H   0  0  0  0  0  0  0  0  0  0  0  0
   10.0570    3.7610   23.2170 H   0  0  0  0  0  0  0  0  0  0  0  0
   10.2450    2.9480   21.7280 H   0  0  0  0  0  0  0  0  0  0  0  0
    8.8620    1.7400   22.3370 H   0  0  0  0  0  0  0  0  0  0  0  0
    9.0150    0.2470   24.4070 H   0  0  0  0  0  0  0  0  0  0  0  0
    5.6940    2.9310   23.3370 H   0  0  0  0  0  0  0  0  0  0  0  0
    6.6180    2.0820   22.1020 H   0  0  0  0  0  0  0  0  0  0  0  0
    4.4810    0.5370   21.8730 H   0  0  0  0  0  0  0  0  0  0  0  0
    4.0310    2.2230   21.9250 H   0  0  0  0  0  0  0  0  0  0  0  0
    4.5360   -0.5900   24.2520 H   0  0  0  0  0  0  0  0  0  0  0  0
    3.7600    0.3610   25.5180 H   0  0  0  0  0  0  0  0  0  0  0  0
    5.4610    1.9050   25.5160 H   0  0  0  0  0  0  0  0  0  0  0  0
    6.2600    0.3540   25.6590 H   0  0  0  0  0  0  0  0  0  0  0  0
   10.3050    0.2880   21.7550 H   0  0  0  0  0  0  0  0  0  0  0  0
    9.4730   -1.0150   23.6010 H   0  0  0  0  0  0  0  0  0  0  0  0
   10.9130   -0.5160   24.4720 H   0  0  0  0  0  0  0  0  0  0  0  0
   10.8290   -1.9260   21.9280 H   0  0  0  0  0  0  0  0  0  0  0  0
   11.1090   -2.5950   23.5400 H   0  0  0  0  0  0  0  0  0  0  0  0
   13.2030   -1.8790   23.5670 H   0  0  0  0  0  0  0  0  0  0  0  0
   13.8650    0.5390   23.0240 H   0  0  0  0  0  0  0  0  0  0  0  0
   12.9070    0.2210   24.4190 H   0  0  0  0  0  0  0  0  0  0  0  0
   12.3320    1.1670   21.8590 H   0  0  0  0  0  0  0  0  0  0  0  0
  1  2  1  0
  2  3  2  0
  2  4  1  0
  4  5  1  0
  5  6  1  0
  6  7  1  0
  7  8  1  0
  8  9  1  0
  9 10  1  0
 10 11  1  0
 11 12  2  0
 11 13  1  0
 13 14  1  0
 14 15  1  0
 15 16  1  0
 16 17  1  0
 13 18  1  0
 17 18  1  0
  9 19  1  0
 19 20  1  0
 20 21  1  0
 21 22  1  0
 22 23  1  0
 23 24  3  0
 22 25  1  0
  7 26  1  0
 19 26  1  0
 25 26  1  0
  1 27  1  0
  1 28  1  0
  1 29  1  0
  4 30  1  0
  5 31  1  0
  5 32  1  0
  6 33  1  0
  6 34  1  0
  7 35  1  1
  8 36  1  0
  8 37  1  0
  9 38  1  6
 10 39  1  0
 14 40  1  0
 14 41  1  0
 15 42  1  0
 15 43  1  0
 17 44  1  0
 17 45  1  0
 18 46  1  0
 18 47  1  0
 19 48  1  6
 20 49  1  0
 20 50  1  0
 21 51  1  0
 21 52  1  0
 22 53  1  1
 25 54  1  0
 25 55  1  0
 26 56  1  6
M  END
