LIG
     RDKit          3D

 42 44  0  0  0  0  0  0  0  0999 V2000
   11.6497    1.6966   19.6572 N   0  0  0  0  0  0  0  0  0  0  0  0
   10.9368    0.9924   20.2425 C   0  0  0  0  0  0  0  0  0  0  0  0
   10.0347    0.1355   21.0401 C   0  0  0  0  0  0  0  0  0  0  0  0
   10.8551   -0.7885   21.9136 C   0  0  0  0  0  0  0  0  0  0  0  0
   10.7375   -0.6000   23.3915 C   0  0  0  0  0  0  0  0  0  0  0  0
   10.1805    0.0665   23.9640 C   0  0  0  0  0  0  0  0  0  0  0  0
   11.9755    0.8210   23.6600 C   0  0  0  0  0  0  0  0  0  0  0  0
    9.1242    1.0182   21.8747 C   0  0  0  0  0  0  0  0  0  0  0  0
    9.8330    1.0540   25.2470 C   0  0  0  0  0  0  0  0  0  0  0  0
    8.4500    0.7150   24.9220 N   0  0  0  0  0  0  0  0  0  0  0  0
    7.7010    1.3160   23.8815 C   0  0  0  0  0  0  0  0  0  0  0  0
    8.5980    1.8640   23.5200 O   0  0  0  0  0  3  0  0  0  0  0  0
    9.4080    1.9150   22.2270 C   0  0  0  0  0  0  0  0  0  0  0  0
   10.1930    3.1570   22.2260 N   0  0  0  0  0  0  0  0  0  0  0  0
    9.0780    1.4060   21.1760 O   0  0  0  0  0  0  0  0  0  0  0  0
    6.8255    0.3075   23.5735 N   0  0  0  0  0  4  0  0  0  0  0  0
    5.6140    1.6470   22.6990 C   0  0  0  0  0  0  0  0  0  0  0  0
    4.2210    1.0320   22.4570 C   0  0  0  0  0  0  0  0  0  0  0  0
    3.4750    1.0690   23.6570 O   0  0  0  0  0  0  0  0  0  0  0  0
    4.0500    0.3480   24.7320 C   0  0  0  0  0  0  0  0  0  0  0  0
    5.4800    0.8530   25.0320 C   0  0  0  0  0  0  0  0  0  0  0  0
    8.6870   -1.0390   23.0120 C   0  0  0  0  0  0  0  0  0  0  0  0
    9.4117   -0.4751   20.3764 H   0  0  0  0  0  0  0  0  0  0  0  0
   11.4804   -1.5143   21.3906 H   0  0  0  0  0  0  0  0  0  0  0  0
   10.7704   -0.7166   22.1717 H   0  0  0  0  0  0  0  0  0  0  0  0
   11.9092    1.8125   23.6359 H   0  0  0  0  0  0  0  0  0  0  0  0
    8.4494    1.6646   21.3112 H   0  0  0  0  0  0  0  0  0  0  0  0
   10.0206    1.9839   24.9881 H   0  0  0  0  0  0  0  0  0  0  0  0
   10.0948    0.5912   26.0768 H   0  0  0  0  0  0  0  0  0  0  0  0
    8.0181   -0.0314   25.4408 H   0  0  0  0  0  0  0  0  0  0  0  0
   10.8348    3.2561   21.4908 H   0  0  0  0  0  0  0  0  0  0  0  0
   10.8403    3.3033   21.5141 H   0  0  0  0  0  0  0  0  0  0  0  0
    6.1945    1.8239   21.8320 H   0  0  0  0  0  0  0  0  0  0  0  0
    5.7156    2.4080   23.4307 H   0  0  0  0  0  0  0  0  0  0  0  0
    4.3103    0.0066   22.1059 H   0  0  0  0  0  0  0  0  0  0  0  0
    3.6950    1.6063   21.6998 H   0  0  0  0  0  0  0  0  0  0  0  0
    3.4193    0.4937   25.6092 H   0  0  0  0  0  0  0  0  0  0  0  0
    4.0612   -0.7189   24.5055 H   0  0  0  0  0  0  0  0  0  0  0  0
    5.9903    0.3634   25.8341 H   0  0  0  0  0  0  0  0  0  0  0  0
    5.6823    1.8975   25.0008 H   0  0  0  0  0  0  0  0  0  0  0  0
    8.4377   -1.6976   23.6224 H   0  0  0  0  0  0  0  0  0  0  0  0
    8.7022   -0.7886   22.1376 H   0  0  0  0  0  0  0  0  0  0  0  0
  1  2  3  0
  2  3  1  0
  3  4  1  0
  4  5  2  0
  5  6  1  0
  6  7  1  0
  7  8  2  0
  6  9  1  0
  9 10  1  0
 10 11  1  0
 11 12  2  3
 12 13  1  0
 13 14  1  0
 13 15  2  0
 11 16  1  0
 16 17  1  0
 17 18  1  0
 18 19  1  0
 19 20  1  0
 20 21  1  0
 16 22  1  0
  8  3  1  0
 21 16  1  0
 22  6  1  0
  3 23  1  0
  4 24  1  0
  5 25  1  0
  7 26  1  0
  8 27  1  0
  9 28  1  0
  9 29  1  0
 10 30  1  0
 14 31  1  0
 14 32  1  0
 17 33  1  0
 17 34  1  0
 18 35  1  0
 18 36  1  0
 20 37  1  0
 20 38  1  0
 21 39  1  0
 21 40  1  0
 22 41  1  0
 22 42  1  0
M  CHG  2  12   1  16   1
M  END
