
     RDKit          3D

 44 47  0  0  0  0  0  0  0  0999 V2000
   13.5500   -3.1980   20.9640 N   0  0  0  0  0  0  0  0  0  0  0  0
   13.1410   -2.3510   21.5900 C   0  0  0  0  0  0  0  0  0  0  0  0
   12.4250   -1.2140   22.0980 C   0  0  0  0  0  0  0  0  0  0  0  0
   12.9730   -0.1880   22.7530 C   0  0  0  0  0  0  0  0  0  0  0  0
   11.9970    0.8290   23.0720 C   0  0  0  0  0  0  0  0  0  0  0  0
   10.5900    0.5520   22.6080 C   0  0  0  0  0  0  0  0  0  0  0  0
    9.8930   -0.5130   21.8650 C   0  0  0  0  0  0  0  0  0  0  0  0
   11.1300   -1.3470   21.7510 C   0  0  0  0  0  0  0  0  0  0  0  0
    8.8330    0.2990   22.0100 C   0  0  0  0  0  0  0  0  0  0  0  0
    9.0550    1.6770   22.1820 O   0  0  0  0  0  0  0  0  0  0  0  0
    7.5930   -0.2180   21.7770 N   0  0  0  0  0  0  0  0  0  0  0  0
    6.8010    0.1810   20.6340 C   0  0  0  0  0  0  0  0  0  0  0  0
    7.1120   -0.3780   19.2300 C   0  0  0  0  0  0  0  0  0  0  0  0
    6.2540    0.1100   18.1360 N   0  0  0  0  0  0  0  0  0  0  0  0
    5.2120    1.0330   18.4210 C   0  0  0  0  0  0  0  0  0  0  0  0
    4.9860    1.4970   19.7210 C   0  0  0  0  0  0  0  0  0  0  0  0
    5.7530    1.0990   20.8320 C   0  0  0  0  0  0  0  0  0  0  0  0
    5.4750    1.6340   22.1240 C   0  0  1  0  0  0  0  0  0  0  0  0
    4.0950    1.8790   22.4580 C   0  0  0  0  0  0  0  0  0  0  0  0
    3.4560    1.3180   23.6670 O   0  0  0  0  0  0  0  0  0  0  0  0
    4.3200    0.6900   24.6260 C   0  0  0  0  0  0  0  0  0  0  0  0
    5.5460    0.7840   24.0720 C   0  0  0  0  0  0  0  0  0  0  0  0
    6.2740    1.0720   23.2580 N   0  0  0  0  0  0  0  0  0  0  0  0
    7.3980    1.7180   23.7510 C   0  0  0  0  0  0  0  0  0  0  0  0
    7.4190    2.8910   24.1060 O   0  0  0  0  0  0  0  0  0  0  0  0
    8.5600    1.0420   23.8180 N   0  0  0  0  0  0  0  0  0  0  0  0
    9.6160    1.5470   22.9460 C   0  0  0  0  0  0  0  0  0  0  0  0
   14.0120   -0.1100   23.0120 H   0  0  0  0  0  0  0  0  0  0  0  0
   12.2940    1.7270   23.6050 H   0  0  0  0  0  0  0  0  0  0  0  0
   10.9390   -2.2870   21.2340 H   0  0  0  0  0  0  0  0  0  0  0  0
    7.1290   -0.5290   22.6220 H   0  0  0  0  0  0  0  0  0  0  0  0
    7.8970   -1.0850   18.9860 H   0  0  0  0  0  0  0  0  0  0  0  0
    4.6060    1.3590   17.5790 H   0  0  0  0  0  0  0  0  0  0  0  0
    4.1740    2.2060   19.8600 H   0  0  0  0  0  0  0  0  0  0  0  0
    5.8800    2.6520   22.1250 H   0  0  0  0  0  0  0  0  0  0  0  0
    3.4890    1.5460   21.6070 H   0  0  0  0  0  0  0  0  0  0  0  0
    3.9180    2.9600   22.5120 H   0  0  0  0  0  0  0  0  0  0  0  0
    4.2680    1.2400   25.5700 H   0  0  0  0  0  0  0  0  0  0  0  0
    4.0140   -0.3490   24.8020 H   0  0  0  0  0  0  0  0  0  0  0  0
    6.0750    1.1960   24.9380 H   0  0  0  0  0  0  0  0  0  0  0  0
    5.8160   -0.2800   24.0820 H   0  0  0  0  0  0  0  0  0  0  0  0
    8.3540    0.0840   23.5690 H   0  0  0  0  0  0  0  0  0  0  0  0
    9.1990    2.0600   22.0680 H   0  0  0  0  0  0  0  0  0  0  0  0
   10.1270    2.3510   23.5000 H   0  0  0  0  0  0  0  0  0  0  0  0
  1  2  3  0
  2  3  1  0
  3  4  2  0
  4  5  1  0
  5  6  2  0
  6  7  1  0
  3  8  1  0
  7  8  2  0
  7  9  1  0
  9 10  2  0
  9 11  1  0
 11 12  1  0
 12 13  1  0
 13 14  2  0
 14 15  1  0
 15 16  2  0
 12 17  2  0
 16 17  1  0
 17 18  1  0
 18 19  1  0
 19 20  1  0
 20 21  1  0
 21 22  1  0
 18 23  1  0
 22 23  1  0
 23 24  1  0
 24 25  2  0
 24 26  1  0
  6 27  1  0
 26 27  1  0
  4 28  1  0
  5 29  1  0
  8 30  1  0
 11 31  1  0
 13 32  1  0
 15 33  1  0
 16 34  1  0
 18 35  1  6
 19 36  1  0
 19 37  1  0
 21 38  1  0
 21 39  1  0
 22 40  1  0
 22 41  1  0
 26 42  1  0
 27 43  1  0
 27 44  1  0
M  END
