LIG
     RDKit          3D

 63 66  0  0  0  0  0  0  0  0999 V2000
   13.9850   -1.7380   20.5810 N   0  0  0  0  0  0  0  0  0  0  0  0
   13.2800   -1.3010   21.3800 C   0  0  0  0  0  0  0  0  0  0  0  0
   12.4390   -0.7270   22.3590 C   0  0  0  0  0  0  0  0  0  0  0  0
   12.7690    0.5130   22.9150 C   0  0  0  0  0  0  0  0  0  0  0  0
   11.9170    1.0940   23.8520 C   0  0  0  0  0  0  0  0  0  0  0  0
   10.7560    0.4300   24.2400 C   0  0  0  0  0  0  0  0  0  0  0  0
    9.8330    1.0540   25.2470 C   0  0  0  0  0  0  0  0  0  0  0  0
    8.6640    0.1180   24.4310 N   0  0  0  0  0  0  0  0  0  0  0  0
    7.7030    1.4680   24.0150 C   0  0  0  0  0  0  0  0  0  0  0  0
    8.1720    2.4660   23.4420 O   0  0  0  0  0  0  0  0  0  0  0  0
    6.3360    0.9640   23.8050 N   0  0  0  0  0  0  0  0  0  0  0  0
    5.4800    0.8530   25.0320 C   0  0  0  0  0  0  0  0  0  0  0  0
    4.0500    0.3480   24.7320 C   0  0  0  0  0  0  0  0  0  0  0  0
    3.4750    1.0690   23.6570 O   0  0  0  0  0  0  0  0  0  0  0  0
    4.2210    1.0320   22.4570 C   0  0  0  0  0  0  0  0  0  0  0  0
    5.6140    1.6470   22.6990 C   0  0  0  0  0  0  0  0  0  0  0  0
    8.8070   -1.5850   24.7810 C   0  0  0  0  0  0  0  0  0  0  0  0
    9.4490   -2.7910   24.4310 C   0  0  0  0  0  0  0  0  0  0  0  0
    9.5290   -3.9700   25.2640 N   0  0  0  0  0  0  0  0  0  0  0  0
    9.8940   -5.2910   24.6800 C   0  0  0  0  0  0  0  0  0  0  0  0
    8.9080   -5.8040   23.6240 C   0  0  0  0  0  0  0  0  0  0  0  0
    7.4420   -5.5890   24.0410 C   0  0  0  0  0  0  0  0  0  0  0  0
    7.3000   -5.8000   25.4420 O   0  0  0  0  0  0  0  0  0  0  0  0
    7.2860   -4.6680   26.2770 C   0  0  0  0  0  0  0  0  0  0  0  0
    8.7010   -4.0730   26.4970 C   0  0  0  0  0  0  0  0  0  0  0  0
   10.1230   -2.7850   23.1640 C   0  0  0  0  0  0  0  0  0  0  0  0
   10.7415   -1.5630   22.5415 C   0  0  0  0  0  0  0  0  0  0  0  0
   10.0130   -0.7015   23.2215 C   0  0  0  0  0  0  0  0  0  0  0  0
    9.7510    0.5640   21.9590 C   0  0  0  0  0  0  0  0  0  0  0  0
    9.8900    1.5270   21.3460 N   0  0  0  0  0  0  0  0  0  0  0  0
   12.9656   -1.5715   23.3518 H   0  0  0  0  0  0  0  0  0  0  0  0
   13.8394    0.4913   23.3229 H   0  0  0  0  0  0  0  0  0  0  0  0
   12.9005    1.2731   22.0720 H   0  0  0  0  0  0  0  0  0  0  0  0
   11.6295    2.1891   23.5072 H   0  0  0  0  0  0  0  0  0  0  0  0
   12.5212    1.4397   24.8146 H   0  0  0  0  0  0  0  0  0  0  0  0
   10.1924    1.6126   23.5443 H   0  0  0  0  0  0  0  0  0  0  0  0
    9.8411    0.6913   26.1661 H   0  0  0  0  0  0  0  0  0  0  0  0
    9.6102    1.9933   24.9867 H   0  0  0  0  0  0  0  0  0  0  0  0
    5.9451    0.1825   25.7648 H   0  0  0  0  0  0  0  0  0  0  0  0
    5.4404    1.8631   25.4693 H   0  0  0  0  0  0  0  0  0  0  0  0
    4.0577   -0.7232   24.4947 H   0  0  0  0  0  0  0  0  0  0  0  0
    3.4219    0.4929   25.6173 H   0  0  0  0  0  0  0  0  0  0  0  0
    4.2977   -0.0012   22.1012 H   0  0  0  0  0  0  0  0  0  0  0  0
    3.6903    1.6139   21.6978 H   0  0  0  0  0  0  0  0  0  0  0  0
    5.5086    2.6941   23.0084 H   0  0  0  0  0  0  0  0  0  0  0  0
    6.2199    1.6179   21.7858 H   0  0  0  0  0  0  0  0  0  0  0  0
    7.5976   -1.7670   24.7762 H   0  0  0  0  0  0  0  0  0  0  0  0
    8.7041   -1.4306   26.0241 H   0  0  0  0  0  0  0  0  0  0  0  0
    8.2857   -3.2210   23.7909 H   0  0  0  0  0  0  0  0  0  0  0  0
   10.0564   -6.0496   25.4671 H   0  0  0  0  0  0  0  0  0  0  0  0
   10.8656   -5.1932   24.1676 H   0  0  0  0  0  0  0  0  0  0  0  0
    9.0894   -5.3034   22.6799 H   0  0  0  0  0  0  0  0  0  0  0  0
    9.0613   -6.8635   23.4564 H   0  0  0  0  0  0  0  0  0  0  0  0
    6.8233   -6.3144   23.5501 H   0  0  0  0  0  0  0  0  0  0  0  0
    7.1218   -4.6009   23.7852 H   0  0  0  0  0  0  0  0  0  0  0  0
    6.5694   -3.8970   25.9277 H   0  0  0  0  0  0  0  0  0  0  0  0
    6.9083   -4.9982   27.2620 H   0  0  0  0  0  0  0  0  0  0  0  0
    8.5551   -3.0684   26.9017 H   0  0  0  0  0  0  0  0  0  0  0  0
    9.2175   -4.6730   27.2491 H   0  0  0  0  0  0  0  0  0  0  0  0
   10.9506   -3.6439   23.0795 H   0  0  0  0  0  0  0  0  0  0  0  0
    9.4160   -3.2262   22.3183 H   0  0  0  0  0  0  0  0  0  0  0  0
   10.5706   -1.6977   21.5010 H   0  0  0  0  0  0  0  0  0  0  0  0
   11.4456    0.2046   22.2906 H   0  0  0  0  0  0  0  0  0  0  0  0
  1  2  3  0
  2  3  1  0
  3  4  1  0
  4  5  1  0
  5  6  1  0
  6  7  1  0
  7  8  1  0
  8  9  1  0
  9 10  2  0
  9 11  1  0
 11 12  1  0
 12 13  1  0
 13 14  1  0
 14 15  1  0
 15 16  1  0
  8 17  1  0
 17 18  1  0
 18 19  1  0
 19 20  1  0
 20 21  1  0
 21 22  1  0
 22 23  1  0
 23 24  1  0
 24 25  1  0
 18 26  1  0
 26 27  1  0
 27 28  1  0
 28 29  1  0
 29 30  3  0
 27  3  1  0
 28  6  1  0
 16 11  1  0
 25 19  1  0
  3 31  1  0
  4 32  1  0
  4 33  1  0
  5 34  1  0
  5 35  1  0
  6 36  1  0
  7 37  1  0
  7 38  1  0
 12 39  1  0
 12 40  1  0
 13 41  1  0
 13 42  1  0
 15 43  1  0
 15 44  1  0
 16 45  1  0
 16 46  1  0
 17 47  1  0
 17 48  1  0
 18 49  1  0
 20 50  1  0
 20 51  1  0
 21 52  1  0
 21 53  1  0
 22 54  1  0
 22 55  1  0
 24 56  1  0
 24 57  1  0
 25 58  1  0
 25 59  1  0
 26 60  1  0
 26 61  1  0
 27 62  1  0
 28 63  1  0
M  END
