
     RDKit          3D

 36 37  0  0  0  0  0  0  0  0999 V2000
    7.6240    0.0130   26.6240 C   0  0  0  0  0  0  0  0  0  0  0  0
    8.1950    0.2830   25.3000 N   0  0  0  0  0  0  0  0  0  0  0  0
    9.5840    0.6030   25.5160 C   0  0  0  0  0  0  0  0  0  0  0  0
   10.3960    0.0280   24.5580 C   0  0  0  0  0  0  0  0  0  0  0  0
   11.5700    0.8240   23.9850 C   0  0  0  0  0  0  0  0  0  0  0  0
   12.4140    0.1820   22.9640 C   0  0  0  0  0  0  0  0  0  0  0  0
   12.1470   -1.0900   22.5390 C   0  0  0  0  0  0  0  0  0  0  0  0
   13.0860   -1.5350   21.5040 C   0  0  0  0  0  0  0  0  0  0  0  0
   13.7520   -1.8030   20.6540 N   0  0  0  0  0  0  0  0  0  0  0  0
   11.0990   -1.8430   23.0320 C   0  0  0  0  0  0  0  0  0  0  0  0
   10.1900   -1.2790   24.0720 C   0  0  0  0  0  0  0  0  0  0  0  0
    7.5550    1.1320   24.3870 C   0  0  0  0  0  0  0  0  0  0  0  0
    8.1080    2.1120   23.8860 O   0  0  0  0  0  0  0  0  0  0  0  0
    6.1570    0.7860   24.0410 N   0  0  0  0  0  0  0  0  0  0  0  0
    5.1710    0.6390   25.0670 C   0  0  0  0  0  0  0  0  0  0  0  0
    3.8740    0.3020   24.6960 C   0  0  0  0  0  0  0  0  0  0  0  0
    3.5020    1.1000   23.5780 O   0  0  0  0  0  0  0  0  0  0  0  0
    4.4170    0.9980   22.4770 C   0  0  0  0  0  0  0  0  0  0  0  0
    5.6600    1.5150   22.8660 C   0  0  0  0  0  0  0  0  0  0  0  0
    7.1150   -0.9540   26.6210 H   0  0  0  0  0  0  0  0  0  0  0  0
    6.8900    0.7760   26.9060 H   0  0  0  0  0  0  0  0  0  0  0  0
    8.4140   -0.0150   27.3770 H   0  0  0  0  0  0  0  0  0  0  0  0
    9.8950    0.2480   26.5060 H   0  0  0  0  0  0  0  0  0  0  0  0
    9.6950    1.6780   25.4600 H   0  0  0  0  0  0  0  0  0  0  0  0
   11.7720    1.8390   24.3230 H   0  0  0  0  0  0  0  0  0  0  0  0
   13.2520    0.7380   22.5470 H   0  0  0  0  0  0  0  0  0  0  0  0
   10.8450   -2.8630   22.7250 H   0  0  0  0  0  0  0  0  0  0  0  0
    9.3910   -1.9650   24.3900 H   0  0  0  0  0  0  0  0  0  0  0  0
    5.1460    1.6000   25.5690 H   0  0  0  0  0  0  0  0  0  0  0  0
    5.5240   -0.0810   25.8090 H   0  0  0  0  0  0  0  0  0  0  0  0
    3.6590   -0.7280   24.4160 H   0  0  0  0  0  0  0  0  0  0  0  0
    3.1870    0.5540   25.4970 H   0  0  0  0  0  0  0  0  0  0  0  0
    4.3750   -0.0480   22.1930 H   0  0  0  0  0  0  0  0  0  0  0  0
    3.9240    1.5090   21.6560 H   0  0  0  0  0  0  0  0  0  0  0  0
    5.6590    2.5670   23.1270 H   0  0  0  0  0  0  0  0  0  0  0  0
    6.3690    1.3900   22.0420 H   0  0  0  0  0  0  0  0  0  0  0  0
  1  2  1  0
  2  3  1  0
  3  4  1  0
  4  5  2  0
  5  6  1  0
  6  7  2  0
  7  8  1  0
  8  9  3  0
  7 10  1  0
  4 11  1  0
 10 11  2  0
  2 12  1  0
 12 13  2  0
 12 14  1  0
 14 15  1  0
 15 16  1  0
 16 17  1  0
 17 18  1  0
 14 19  1  0
 18 19  1  0
  1 20  1  0
  1 21  1  0
  1 22  1  0
  3 23  1  0
  3 24  1  0
  5 25  1  0
  6 26  1  0
 10 27  1  0
 11 28  1  0
 15 29  1  0
 15 30  1  0
 16 31  1  0
 16 32  1  0
 18 33  1  0
 18 34  1  0
 19 35  1  0
 19 36  1  0
M  END
