
     RDKit          3D

 44 46  0  0  0  0  0  0  0  0999 V2000
    8.8520   -5.5800   26.3640 C   0  0  0  0  0  0  0  0  0  0  0  0
    8.5930   -4.1940   25.8300 C   0  0  0  0  0  0  0  0  0  0  0  0
    8.1000   -3.1490   26.5740 N   0  0  0  0  0  0  0  0  0  0  0  0
    8.0330   -1.9520   25.7170 N   0  0  0  0  0  0  0  0  0  0  0  0
    8.4680   -2.1890   24.3970 C   0  0  0  0  0  0  0  0  0  0  0  0
    8.5600   -1.1880   23.2690 C   0  0  0  0  0  0  0  0  0  0  0  0
   10.0020   -0.8600   23.1080 C   0  0  0  0  0  0  0  0  0  0  0  0
   10.8770   -1.5500   22.3140 C   0  0  0  0  0  0  0  0  0  0  0  0
   12.3190   -1.1380   22.2220 C   0  0  0  0  0  0  0  0  0  0  0  0
   13.1270   -1.9000   21.4080 C   0  0  0  0  0  0  0  0  0  0  0  0
   13.8750   -1.3410   20.4830 N   0  0  0  0  0  0  0  0  0  0  0  0
   12.8840    0.0740   22.9840 C   0  0  0  0  0  0  0  0  0  0  0  0
   11.8420    0.7580   23.8340 C   0  0  0  0  0  0  0  0  0  0  0  0
   10.5350    0.3680   23.9330 C   0  0  0  0  0  0  0  0  0  0  0  0
    9.6370    1.0250   24.7620 C   0  0  0  0  0  0  0  0  0  0  0  0
    8.3290    0.7090   24.5490 N   0  0  0  0  0  0  0  0  0  0  0  0
    7.5520    1.7420   23.9070 C   0  0  0  0  0  0  0  0  0  0  0  0
    8.0460    2.7960   23.5260 O   0  0  0  0  0  0  0  0  0  0  0  0
    6.2590    1.4450   23.7670 N   0  0  0  0  0  0  0  0  0  0  0  0
    5.6190    2.1270   22.7920 C   0  0  0  0  0  0  0  0  0  0  0  0
    4.3830    1.5560   22.5180 C   0  0  0  0  0  0  0  0  0  0  0  0
    3.5960    1.3820   23.7050 O   0  0  0  0  0  0  0  0  0  0  0  0
    4.2840    0.5300   24.6310 C   0  0  0  0  0  0  0  0  0  0  0  0
    5.4710    1.1680   24.9700 C   0  0  0  0  0  0  0  0  0  0  0  0
    8.9460   -3.8150   24.1080 S   0  0  0  0  0  0  0  0  0  0  0  0
    9.1780   -5.5590   27.4090 H   0  0  0  0  0  0  0  0  0  0  0  0
    7.9320   -6.1650   26.3130 H   0  0  0  0  0  0  0  0  0  0  0  0
    9.6320   -6.0610   25.7680 H   0  0  0  0  0  0  0  0  0  0  0  0
    7.9960   -0.3020   23.5590 H   0  0  0  0  0  0  0  0  0  0  0  0
    8.1680   -1.4550   22.2900 H   0  0  0  0  0  0  0  0  0  0  0  0
   10.5220   -2.4190   21.7380 H   0  0  0  0  0  0  0  0  0  0  0  0
   13.9110    0.4030   22.9250 H   0  0  0  0  0  0  0  0  0  0  0  0
   12.1420    1.6190   24.4150 H   0  0  0  0  0  0  0  0  0  0  0  0
    9.8800    0.8250   25.8070 H   0  0  0  0  0  0  0  0  0  0  0  0
    9.8260    2.0890   24.5790 H   0  0  0  0  0  0  0  0  0  0  0  0
    7.8610    0.3020   25.3420 H   0  0  0  0  0  0  0  0  0  0  0  0
    5.4360    3.1150   23.2290 H   0  0  0  0  0  0  0  0  0  0  0  0
    6.3150    2.2810   21.9710 H   0  0  0  0  0  0  0  0  0  0  0  0
    4.5300    0.5780   22.0530 H   0  0  0  0  0  0  0  0  0  0  0  0
    3.8130    2.1760   21.8180 H   0  0  0  0  0  0  0  0  0  0  0  0
    3.5660    0.3450   25.4250 H   0  0  0  0  0  0  0  0  0  0  0  0
    4.3770   -0.4250   24.1220 H   0  0  0  0  0  0  0  0  0  0  0  0
    6.1180    0.6860   25.6980 H   0  0  0  0  0  0  0  0  0  0  0  0
    5.2140    2.1370   25.3800 H   0  0  0  0  0  0  0  0  0  0  0  0
  1  2  1  0
  2  3  2  0
  3  4  1  0
  4  5  2  0
  5  6  1  0
  6  7  1  0
  7  8  2  0
  8  9  1  0
  9 10  1  0
 10 11  3  0
  9 12  2  0
 12 13  1  0
  7 14  1  0
 13 14  2  0
 14 15  1  0
 15 16  1  0
 16 17  1  0
 17 18  2  0
 17 19  1  0
 19 20  1  0
 20 21  1  0
 21 22  1  0
 22 23  1  0
 19 24  1  0
 23 24  1  0
  2 25  1  0
  5 25  1  0
  1 26  1  0
  1 27  1  0
  1 28  1  0
  6 29  1  0
  6 30  1  0
  8 31  1  0
 12 32  1  0
 13 33  1  0
 15 34  1  0
 15 35  1  0
 16 36  1  0
 20 37  1  0
 20 38  1  0
 21 39  1  0
 21 40  1  0
 23 41  1  0
 23 42  1  0
 24 43  1  0
 24 44  1  0
M  END
