LIG
     RDKit          3D

 48 50  0  0  0  0  0  0  0  0999 V2000
   13.9850   -1.7380   20.5810 N   0  0  0  0  0  0  0  0  0  0  0  0
   13.2800   -1.3010   21.3800 C   0  0  0  0  0  0  0  0  0  0  0  0
   12.6565   -0.4920   22.4455 C   0  0  0  0  0  0  0  0  0  0  0  0
   12.8440    0.5450   23.2755 C   0  0  0  0  0  0  0  0  0  0  0  0
   11.8385    0.9925   24.0915 C   0  0  0  0  0  0  0  0  0  0  0  0
   10.6555    0.4040   24.0790 C   0  0  0  0  0  0  0  0  0  0  0  0
    9.8330    1.0540   25.2470 C   0  0  0  0  0  0  0  0  0  0  0  0
    8.4500    0.7150   24.9220 N   0  0  0  0  0  0  0  0  0  0  0  0
    7.7030    1.4680   24.0150 C   0  0  0  0  0  0  0  0  0  0  0  0
    8.1720    2.4660   23.4420 O   0  0  0  0  0  0  0  0  0  0  0  0
    6.3360    0.9640   23.8050 N   0  0  0  0  0  0  0  0  0  0  0  0
    5.6140    1.6470   22.6990 C   0  0  0  0  0  0  0  0  0  0  0  0
    4.2210    1.0320   22.4570 C   0  0  0  0  0  0  0  0  0  0  0  0
    3.4750    1.0690   23.6570 O   0  0  0  0  0  0  0  0  0  0  0  0
    4.0500    0.3480   24.7320 C   0  0  0  0  0  0  0  0  0  0  0  0
    5.4800    0.8530   25.0320 C   0  0  0  0  0  0  0  0  0  0  0  0
   10.4800   -0.6375   23.2540 C   0  0  0  0  0  0  0  0  0  0  0  0
    9.2320   -0.9350   22.4160 N   0  0  0  0  0  0  0  0  0  0  0  0
    8.5920   -0.2080   21.3470 C   0  0  0  0  0  0  0  0  0  0  0  0
    9.1440    0.7090   20.8350 O   0  0  0  0  0  0  0  0  0  0  0  0
    7.2840   -0.6350   20.9180 N   0  0  0  0  0  0  0  0  0  0  0  0
    6.6030    0.0510   19.8530 C   0  0  0  0  0  0  0  0  0  0  0  0
    5.3980    0.6740   20.1340 C   0  0  0  0  0  0  0  0  0  0  0  0
    4.7680    1.3310   19.0890 C   0  0  0  0  0  0  0  0  0  0  0  0
    5.3600    1.2970   17.8310 C   0  0  0  0  0  0  0  0  0  0  0  0
    6.5100    0.7030   17.6230 N   0  0  0  0  0  0  0  0  0  0  0  0
    7.1440    0.0770   18.5790 C   0  0  0  0  0  0  0  0  0  0  0  0
   11.4720   -1.0840   22.4290 C   0  0  0  0  0  0  0  0  0  0  0  0
   13.8257    1.0645   23.3172 H   0  0  0  0  0  0  0  0  0  0  0  0
   12.0651    1.8545   24.7401 H   0  0  0  0  0  0  0  0  0  0  0  0
   10.1215    0.6159   26.1538 H   0  0  0  0  0  0  0  0  0  0  0  0
    9.9008    2.0997   25.1989 H   0  0  0  0  0  0  0  0  0  0  0  0
    8.2631   -0.2865   24.8354 H   0  0  0  0  0  0  0  0  0  0  0  0
    5.5152    2.6945   23.0038 H   0  0  0  0  0  0  0  0  0  0  0  0
    6.2094    1.6020   21.7828 H   0  0  0  0  0  0  0  0  0  0  0  0
    4.3167    0.0041   22.1351 H   0  0  0  0  0  0  0  0  0  0  0  0
    3.6935    1.5986   21.7043 H   0  0  0  0  0  0  0  0  0  0  0  0
    4.0760   -0.7011   24.4718 H   0  0  0  0  0  0  0  0  0  0  0  0
    3.4248    0.4849   25.6059 H   0  0  0  0  0  0  0  0  0  0  0  0
    5.4447    1.8291   25.5364 H   0  0  0  0  0  0  0  0  0  0  0  0
    6.0015    0.1526   25.7018 H   0  0  0  0  0  0  0  0  0  0  0  0
    8.6584   -1.6822   22.7898 H   0  0  0  0  0  0  0  0  0  0  0  0
    6.9349   -1.4576   21.2465 H   0  0  0  0  0  0  0  0  0  0  0  0
    4.9528    0.6618   21.1057 H   0  0  0  0  0  0  0  0  0  0  0  0
    3.8341    1.8641   19.2364 H   0  0  0  0  0  0  0  0  0  0  0  0
    4.8852    1.7646   16.9823 H   0  0  0  0  0  0  0  0  0  0  0  0
    8.0664   -0.3814   18.3200 H   0  0  0  0  0  0  0  0  0  0  0  0
   11.3047   -1.9241   21.7475 H   0  0  0  0  0  0  0  0  0  0  0  0
  1  2  3  0
  2  3  1  0
  3  4  4  0
  4  5  4  0
  5  6  4  0
  6  7  1  0
  7  8  1  0
  8  9  1  0
  9 10  2  0
  9 11  1  0
 11 12  1  0
 12 13  1  0
 13 14  1  0
 14 15  1  0
 15 16  1  0
  6 17  4  0
 17 18  1  0
 18 19  1  0
 19 20  2  0
 19 21  1  0
 21 22  1  0
 22 23  4  0
 23 24  4  0
 24 25  4  0
 25 26  4  0
 26 27  4  0
 17 28  4  0
 28  3  4  0
 16 11  1  0
 27 22  4  0
  4 29  1  0
  5 30  1  0
  7 31  1  0
  7 32  1  0
  8 33  1  0
 12 34  1  0
 12 35  1  0
 13 36  1  0
 13 37  1  0
 15 38  1  0
 15 39  1  0
 16 40  1  0
 16 41  1  0
 18 42  1  0
 21 43  1  0
 23 44  1  0
 24 45  1  0
 25 46  1  0
 27 47  1  0
 28 48  1  0
M  END
