
     RDKit          3D

 52 54  0  0  0  0  0  0  0  0999 V2000
   13.4800   -2.6320   20.7390 N   0  0  0  0  0  0  0  0  0  0  0  0
   12.8950   -1.9850   21.4400 C   0  0  0  0  0  0  0  0  0  0  0  0
   12.0740   -1.2230   22.3750 C   0  0  0  0  0  0  0  0  0  0  0  0
   12.6280   -0.0620   22.9230 C   0  0  0  0  0  0  0  0  0  0  0  0
   11.8050    0.7390   23.8950 C   0  0  0  0  0  0  0  0  0  0  0  0
   10.4600    0.1740   24.1660 C   0  0  0  0  0  0  0  0  0  0  0  0
    9.5470    0.7280   25.0240 C   0  0  0  0  0  0  0  0  0  0  0  0
    8.2880    0.5110   24.5920 N   0  0  0  0  0  0  0  0  0  0  0  0
    7.7320    1.6380   24.0730 C   0  0  0  0  0  0  0  0  0  0  0  0
    8.3260    2.5930   23.5840 O   0  0  0  0  0  0  0  0  0  0  0  0
    6.2400    1.7590   24.0690 N   0  0  0  0  0  0  0  0  0  0  0  0
    5.6270    1.7370   22.7060 C   0  0  0  0  0  0  0  0  0  0  0  0
    4.1410    1.8760   22.6300 C   0  0  0  0  0  0  0  0  0  0  0  0
    3.4840    1.5170   23.6170 O   0  0  0  0  0  0  0  0  0  0  0  0
    4.2370    0.6570   24.4990 C   0  0  0  0  0  0  0  0  0  0  0  0
    5.4090    1.1380   25.0610 C   0  0  0  0  0  0  0  0  0  0  0  0
    9.9250   -1.0310   23.5700 C   0  0  0  0  0  0  0  0  0  0  0  0
    8.6290   -1.5500   23.8260 C   0  0  0  0  0  0  0  0  0  0  0  0
    8.4500   -2.9890   24.1860 N   0  0  0  0  0  0  0  0  0  0  0  0
    7.0810   -3.2010   24.7400 C   0  0  0  0  0  0  0  0  0  0  0  0
    6.9620   -4.2280   25.7370 C   0  0  0  0  0  0  0  0  0  0  0  0
    8.2960   -4.3800   26.3910 C   0  0  1  0  0  0  0  0  0  0  0  0
    8.3650   -5.3320   27.4410 O   0  0  0  0  0  0  0  0  0  0  0  0
    9.2390   -4.6060   25.4620 C   0  0  0  0  0  0  0  0  0  0  0  0
    9.5560   -3.4560   24.7840 C   0  0  0  0  0  0  0  0  0  0  0  0
   10.7840   -1.6950   22.6710 C   0  0  0  0  0  0  0  0  0  0  0  0
   13.6330    0.2640   22.6580 H   0  0  0  0  0  0  0  0  0  0  0  0
   12.1790    1.6420   24.3470 H   0  0  0  0  0  0  0  0  0  0  0  0
    9.6960    1.8060   25.1210 H   0  0  0  0  0  0  0  0  0  0  0  0
    9.6610    0.3020   26.0230 H   0  0  0  0  0  0  0  0  0  0  0  0
    7.6800    0.0420   25.2470 H   0  0  0  0  0  0  0  0  0  0  0  0
    6.0440    2.5850   22.1480 H   0  0  0  0  0  0  0  0  0  0  0  0
    6.0730    0.8580   22.2470 H   0  0  0  0  0  0  0  0  0  0  0  0
    3.7670    1.3500   21.7450 H   0  0  0  0  0  0  0  0  0  0  0  0
    3.9080    2.9320   22.4330 H   0  0  0  0  0  0  0  0  0  0  0  0
    3.5350    0.3370   25.2750 H   0  0  0  0  0  0  0  0  0  0  0  0
    4.5120   -0.2330   23.9300 H   0  0  0  0  0  0  0  0  0  0  0  0
    5.9710    0.3050   25.4960 H   0  0  0  0  0  0  0  0  0  0  0  0
    5.2390    1.8380   25.8810 H   0  0  0  0  0  0  0  0  0  0  0  0
    8.1330   -1.0610   24.6540 H   0  0  0  0  0  0  0  0  0  0  0  0
    7.9340   -1.3760   23.0080 H   0  0  0  0  0  0  0  0  0  0  0  0
    6.8010   -2.3080   25.2880 H   0  0  0  0  0  0  0  0  0  0  0  0
    6.4060   -3.2230   23.8790 H   0  0  0  0  0  0  0  0  0  0  0  0
    6.5990   -5.2290   25.5460 H   0  0  0  0  0  0  0  0  0  0  0  0
    6.2450   -3.8660   26.4860 H   0  0  0  0  0  0  0  0  0  0  0  0
    8.4910   -3.4270   26.8820 H   0  0  0  0  0  0  0  0  0  0  0  0
    7.4820   -5.4350   27.8340 H   0  0  0  0  0  0  0  0  0  0  0  0
   10.1040   -5.0560   25.9400 H   0  0  0  0  0  0  0  0  0  0  0  0
    8.8420   -5.3490   24.7710 H   0  0  0  0  0  0  0  0  0  0  0  0
   10.3240   -3.6460   24.0300 H   0  0  0  0  0  0  0  0  0  0  0  0
    9.8950   -2.6390   25.3740 H   0  0  0  0  0  0  0  0  0  0  0  0
   10.4410   -2.6070   22.1890 H   0  0  0  0  0  0  0  0  0  0  0  0
  1  2  3  0
  2  3  1  0
  3  4  2  0
  4  5  1  0
  5  6  2  0
  6  7  1  0
  7  8  1  0
  8  9  1  0
  9 10  2  0
  9 11  1  0
 11 12  1  0
 12 13  1  0
 13 14  1  0
 14 15  1  0
 11 16  1  0
 15 16  1  0
  6 17  1  0
 17 18  1  0
 18 19  1  0
 19 20  1  0
 20 21  1  0
 21 22  1  0
 22 23  1  0
 22 24  1  0
 19 25  1  0
 24 25  1  0
  3 26  1  0
 17 26  2  0
  4 27  1  0
  5 28  1  0
  7 29  1  0
  7 30  1  0
  8 31  1  0
 12 32  1  0
 12 33  1  0
 13 34  1  0
 13 35  1  0
 15 36  1  0
 15 37  1  0
 16 38  1  0
 16 39  1  0
 18 40  1  0
 18 41  1  0
 20 42  1  0
 20 43  1  0
 21 44  1  0
 21 45  1  0
 22 46  1  1
 23 47  1  0
 24 48  1  0
 24 49  1  0
 25 50  1  0
 25 51  1  0
 26 52  1  0
M  END
