LIG
     RDKit          3D

 56 58  0  0  0  0  0  0  0  0999 V2000
    8.9920    6.2370   22.6120 C   0  0  0  0  0  0  0  0  0  0  0  0
   10.2740    5.9430   23.3830 C   0  0  0  0  0  0  0  0  0  0  0  0
   10.3130    6.1380   24.5460 O   0  0  0  0  0  0  0  0  0  0  0  0
   11.4270    5.4110   22.6760 N   0  0  0  0  0  0  0  0  0  0  0  0
   12.6680    5.0840   23.3500 C   0  0  0  0  0  0  0  0  0  0  0  0
   13.0500    3.6550   22.9570 C   0  0  0  0  0  0  0  0  0  0  0  0
   12.0650    2.5700   23.4230 C   0  0  0  0  0  0  0  0  0  0  0  0
   10.9400    2.7480   24.2110 C   0  0  0  0  0  0  0  0  0  0  0  0
   10.0930    1.3125   24.8130 C   0  0  0  0  0  0  0  0  0  0  0  0
    8.4500    0.7150   24.9220 N   0  0  0  0  0  0  0  0  0  0  0  0
    7.7030    1.4680   24.0150 C   0  0  0  0  0  0  0  0  0  0  0  0
    8.1720    2.4660   23.4420 O   0  0  0  0  0  0  0  0  0  0  0  0
    6.3360    0.9640   23.8050 N   0  0  0  0  0  0  0  0  0  0  0  0
    5.6140    1.6470   22.6990 C   0  0  0  0  0  0  0  0  0  0  0  0
    4.2210    1.0320   22.4570 C   0  0  0  0  0  0  0  0  0  0  0  0
    3.4750    1.0690   23.6570 O   0  0  0  0  0  0  0  0  0  0  0  0
    4.0500    0.3480   24.7320 C   0  0  0  0  0  0  0  0  0  0  0  0
    5.4800    0.8530   25.0320 C   0  0  0  0  0  0  0  0  0  0  0  0
   10.9020    0.5130   23.9840 C   0  0  0  0  0  0  0  0  0  0  0  0
   10.6330   -0.8105   23.6495 C   0  0  0  0  0  0  0  0  0  0  0  0
   11.4950   -1.4895   22.8075 C   0  0  0  0  0  0  0  0  0  0  0  0
   12.6245   -0.8575   22.3020 C   0  0  0  0  0  0  0  0  0  0  0  0
   13.4800   -1.5225   21.4490 C   0  0  0  0  0  0  0  0  0  0  0  0
   13.9850   -1.7380   20.5810 N   0  0  0  0  0  0  0  0  0  0  0  0
   12.8995    0.4485   22.6415 C   0  0  0  0  0  0  0  0  0  0  0  0
   12.0240    1.1400   23.4865 C   0  0  0  0  0  0  0  0  0  0  0  0
    8.2074    5.5730   22.9756 H   0  0  0  0  0  0  0  0  0  0  0  0
    8.6721    7.2684   22.7596 H   0  0  0  0  0  0  0  0  0  0  0  0
    9.1746    6.0594   21.5523 H   0  0  0  0  0  0  0  0  0  0  0  0
   11.3159    5.2189   21.6969 H   0  0  0  0  0  0  0  0  0  0  0  0
   12.5065    5.1665   24.4136 H   0  0  0  0  0  0  0  0  0  0  0  0
   13.4074    5.7956   23.0186 H   0  0  0  0  0  0  0  0  0  0  0  0
   13.1368    3.5938   21.8713 H   0  0  0  0  0  0  0  0  0  0  0  0
   14.0379    3.4250   23.3602 H   0  0  0  0  0  0  0  0  0  0  0  0
   12.8392    2.5443   24.7161 H   0  0  0  0  0  0  0  0  0  0  0  0
   11.0748    3.4018   25.1662 H   0  0  0  0  0  0  0  0  0  0  0  0
   10.0598    3.3235   23.7130 H   0  0  0  0  0  0  0  0  0  0  0  0
    9.4614    1.4514   23.1594 H   0  0  0  0  0  0  0  0  0  0  0  0
    8.4012   -0.1373   25.0798 H   0  0  0  0  0  0  0  0  0  0  0  0
    5.5162    2.6945   23.0030 H   0  0  0  0  0  0  0  0  0  0  0  0
    6.2084    1.5992   21.7825 H   0  0  0  0  0  0  0  0  0  0  0  0
    4.3169    0.0041   22.1350 H   0  0  0  0  0  0  0  0  0  0  0  0
    3.6938    1.5987   21.7045 H   0  0  0  0  0  0  0  0  0  0  0  0
    4.0758   -0.7010   24.4718 H   0  0  0  0  0  0  0  0  0  0  0  0
    3.4248    0.4852   25.6058 H   0  0  0  0  0  0  0  0  0  0  0  0
    5.4432    1.8295   25.5356 H   0  0  0  0  0  0  0  0  0  0  0  0
    6.0015    0.1534   25.7027 H   0  0  0  0  0  0  0  0  0  0  0  0
   10.1388    0.9312   22.8334 H   0  0  0  0  0  0  0  0  0  0  0  0
    9.5541   -0.9009   23.2280 H   0  0  0  0  0  0  0  0  0  0  0  0
   10.4925   -1.4406   24.6164 H   0  0  0  0  0  0  0  0  0  0  0  0
   10.8759   -1.9708   21.9520 H   0  0  0  0  0  0  0  0  0  0  0  0
   11.8158   -2.4631   23.3418 H   0  0  0  0  0  0  0  0  0  0  0  0
   13.4148   -1.3283   23.4133 H   0  0  0  0  0  0  0  0  0  0  0  0
   13.0798    1.0906   21.6863 H   0  0  0  0  0  0  0  0  0  0  0  0
   13.9760    0.5059   23.0780 H   0  0  0  0  0  0  0  0  0  0  0  0
   11.1791    1.2455   22.1681 H   0  0  0  0  0  0  0  0  0  0  0  0
  1  2  1  0
  2  3  2  0
  2  4  1  0
  4  5  1  0
  5  6  1  0
  6  7  1  0
  7  8  1  0
  8  9  1  0
  9 10  1  0
 10 11  1  0
 11 12  2  0
 11 13  1  0
 13 14  1  0
 14 15  1  0
 15 16  1  0
 16 17  1  0
 17 18  1  0
  9 19  1  0
 19 20  1  0
 20 21  1  0
 21 22  1  0
 22 23  1  0
 23 24  3  0
 22 25  1  0
 25 26  1  0
 26  7  1  0
 18 13  1  0
 26 19  1  0
  1 27  1  0
  1 28  1  0
  1 29  1  0
  4 30  1  0
  5 31  1  0
  5 32  1  0
  6 33  1  0
  6 34  1  0
  7 35  1  0
  8 36  1  0
  8 37  1  0
  9 38  1  0
 10 39  1  0
 14 40  1  0
 14 41  1  0
 15 42  1  0
 15 43  1  0
 17 44  1  0
 17 45  1  0
 18 46  1  0
 18 47  1  0
 19 48  1  0
 20 49  1  0
 20 50  1  0
 21 51  1  0
 21 52  1  0
 22 53  1  0
 25 54  1  0
 25 55  1  0
 26 56  1  0
M  END
