LIG
     RDKit          3D

 49 51  0  0  0  0  0  0  0  0999 V2000
   13.9850   -1.7380   20.5810 N   0  0  0  0  0  0  0  0  0  0  0  0
   13.2800   -1.3010   21.3800 C   0  0  0  0  0  0  0  0  0  0  0  0
   12.6285   -1.2200   22.5030 C   0  0  0  0  0  0  0  0  0  0  0  0
   13.1895   -0.1730   23.2720 C   0  0  0  0  0  0  0  0  0  0  0  0
   12.3440    0.4705   24.2710 C   0  0  0  0  0  0  0  0  0  0  0  0
   11.0185    0.0140   24.3835 C   0  0  0  0  0  0  0  0  0  0  0  0
    9.8330    1.0540   25.2470 C   0  0  0  0  0  0  0  0  0  0  0  0
    8.4500    0.7150   24.9220 N   0  0  0  0  0  0  0  0  0  0  0  0
    7.7030    1.4680   24.0150 C   0  0  0  0  0  0  0  0  0  0  0  0
    8.1720    2.4660   23.4420 O   0  0  0  0  0  0  0  0  0  0  0  0
    6.3360    0.9640   23.8050 N   0  0  0  0  0  0  0  0  0  0  0  0
    5.6140    1.6470   22.6990 C   0  0  0  0  0  0  0  0  0  0  0  0
    4.2210    1.0320   22.4570 C   0  0  0  0  0  0  0  0  0  0  0  0
    3.4750    1.0690   23.6570 O   0  0  0  0  0  0  0  0  0  0  0  0
    4.0500    0.3480   24.7320 C   0  0  0  0  0  0  0  0  0  0  0  0
    5.4800    0.8530   25.0320 C   0  0  0  0  0  0  0  0  0  0  0  0
   10.6825   -0.4495   23.3895 C   0  0  0  0  0  0  0  0  0  0  0  0
    9.4090   -0.1550   23.0330 C   0  0  0  0  0  0  0  0  0  0  0  0
    8.8650    0.3120   21.6960 C   0  0  0  0  0  0  0  0  0  0  0  0
    9.4190    1.1020   21.0000 O   0  0  0  0  0  0  0  0  0  0  0  0
    7.6120   -0.2560   21.3260 N   0  0  0  0  0  0  0  0  0  0  0  0
    7.0000    0.1710   20.1090 C   0  0  0  0  0  0  0  0  0  0  0  0
    5.7560    0.7730   20.2490 C   0  0  0  0  0  0  0  0  0  0  0  0
    5.1420    1.2080   19.0830 C   0  0  0  0  0  0  0  0  0  0  0  0
    5.8050    1.0240   17.8770 C   0  0  0  0  0  0  0  0  0  0  0  0
    7.0000    0.4540   17.8140 N   0  0  0  0  0  0  0  0  0  0  0  0
    7.6260    0.0260   18.8870 C   0  0  0  0  0  0  0  0  0  0  0  0
   11.4220   -1.2225   22.4210 C   0  0  0  0  0  0  0  0  0  0  0  0
   14.1945    0.1502   23.1618 H   0  0  0  0  0  0  0  0  0  0  0  0
   12.7541    1.2305   24.8732 H   0  0  0  0  0  0  0  0  0  0  0  0
   10.0510    0.8799   26.2881 H   0  0  0  0  0  0  0  0  0  0  0  0
   10.0992    2.0675   24.9985 H   0  0  0  0  0  0  0  0  0  0  0  0
    8.2381   -0.2885   24.8866 H   0  0  0  0  0  0  0  0  0  0  0  0
    5.5213    2.6975   22.9983 H   0  0  0  0  0  0  0  0  0  0  0  0
    6.1977    1.5940   21.7731 H   0  0  0  0  0  0  0  0  0  0  0  0
    3.6943    1.5936   21.7026 H   0  0  0  0  0  0  0  0  0  0  0  0
    4.3303    0.0096   22.1340 H   0  0  0  0  0  0  0  0  0  0  0  0
    4.0822   -0.7028   24.4679 H   0  0  0  0  0  0  0  0  0  0  0  0
    3.4206    0.4753   25.6105 H   0  0  0  0  0  0  0  0  0  0  0  0
    6.0078    0.1515   25.7011 H   0  0  0  0  0  0  0  0  0  0  0  0
    5.4432    1.8349   25.5285 H   0  0  0  0  0  0  0  0  0  0  0  0
    8.9558    0.6319   23.7959 H   0  0  0  0  0  0  0  0  0  0  0  0
    8.6785   -1.0370   23.3460 H   0  0  0  0  0  0  0  0  0  0  0  0
    7.2106   -0.9195   21.8590 H   0  0  0  0  0  0  0  0  0  0  0  0
    5.2632    0.9098   21.1816 H   0  0  0  0  0  0  0  0  0  0  0  0
    4.1637    1.6822   19.1069 H   0  0  0  0  0  0  0  0  0  0  0  0
    5.3618    1.3362   16.9472 H   0  0  0  0  0  0  0  0  0  0  0  0
    8.5710   -0.4125   18.7562 H   0  0  0  0  0  0  0  0  0  0  0  0
   10.8132   -1.7653   21.6823 H   0  0  0  0  0  0  0  0  0  0  0  0
  1  2  3  0
  2  3  1  0
  3  4  4  0
  4  5  4  0
  5  6  4  0
  6  7  1  0
  7  8  1  0
  8  9  1  0
  9 10  2  0
  9 11  1  0
 11 12  1  0
 12 13  1  0
 13 14  1  0
 14 15  1  0
 15 16  1  0
  6 17  4  0
 17 18  1  0
 18 19  1  0
 19 20  2  0
 19 21  1  0
 21 22  1  0
 22 23  4  0
 23 24  4  0
 24 25  4  0
 25 26  4  0
 26 27  4  0
 17 28  4  0
 28  3  4  0
 16 11  1  0
 27 22  4  0
  4 29  1  0
  5 30  1  0
  7 31  1  0
  7 32  1  0
  8 33  1  0
 12 34  1  0
 12 35  1  0
 13 36  1  0
 13 37  1  0
 15 38  1  0
 15 39  1  0
 16 40  1  0
 16 41  1  0
 18 42  1  0
 18 43  1  0
 21 44  1  0
 23 45  1  0
 24 46  1  0
 25 47  1  0
 27 48  1  0
 28 49  1  0
M  END
