
     RDKit          3D

 48 50  0  0  0  0  0  0  0  0999 V2000
   13.5210   -2.7270   20.7100 N   0  0  0  0  0  0  0  0  0  0  0  0
   13.0080   -1.9990   21.3900 C   0  0  0  0  0  0  0  0  0  0  0  0
   12.2270   -1.1580   22.2820 C   0  0  0  0  0  0  0  0  0  0  0  0
   12.8620   -0.2610   23.1200 C   0  0  0  0  0  0  0  0  0  0  0  0
   12.0270    0.5750   24.0400 C   0  0  0  0  0  0  0  0  0  0  0  0
   10.5730    0.3540   23.9600 C   0  0  0  0  0  0  0  0  0  0  0  0
    9.6490    1.0160   24.7480 C   0  0  0  0  0  0  0  0  0  0  0  0
    8.4100    0.5320   24.6000 N   0  0  0  0  0  0  0  0  0  0  0  0
    7.6060    1.5090   24.1070 C   0  0  0  0  0  0  0  0  0  0  0  0
    7.9610    2.6270   23.7360 O   0  0  0  0  0  0  0  0  0  0  0  0
    6.1500    1.2300   23.9930 N   0  0  0  0  0  0  0  0  0  0  0  0
    5.4520    1.9990   22.9190 C   0  0  0  0  0  0  0  0  0  0  0  0
    3.9520    2.0120   22.9130 C   0  0  0  0  0  0  0  0  0  0  0  0
    3.3190    1.5230   23.8680 O   0  0  0  0  0  0  0  0  0  0  0  0
    4.0720    0.6260   24.7170 C   0  0  0  0  0  0  0  0  0  0  0  0
    5.3280    1.0050   25.1310 C   0  0  0  0  0  0  0  0  0  0  0  0
    9.9840   -0.5880   23.0380 C   0  0  0  0  0  0  0  0  0  0  0  0
    8.6450   -0.8380   22.8580 N   0  0  0  0  0  0  0  0  0  0  0  0
    8.1380   -0.2340   21.6110 C   0  0  0  0  0  0  0  0  0  0  0  0
    8.6220    0.7990   21.1490 O   0  0  0  0  0  0  0  0  0  0  0  0
    7.1070   -0.8800   21.0180 N   0  0  0  0  0  0  0  0  0  0  0  0
    6.4620   -0.1720   20.0470 C   0  0  0  0  0  0  0  0  0  0  0  0
    5.2610    0.4960   20.3230 C   0  0  0  0  0  0  0  0  0  0  0  0
    4.5960    1.2790   19.2020 C   0  0  0  0  0  0  0  0  0  0  0  0
    5.2250    1.2810   17.9720 C   0  0  0  0  0  0  0  0  0  0  0  0
    6.3820    0.6190   17.7490 N   0  0  0  0  0  0  0  0  0  0  0  0
    6.9600   -0.0770   18.7610 C   0  0  0  0  0  0  0  0  0  0  0  0
   10.8580   -1.3110   22.2380 C   0  0  0  0  0  0  0  0  0  0  0  0
   13.9350   -0.1640   23.1200 H   0  0  0  0  0  0  0  0  0  0  0  0
   12.4780    1.2690   24.6960 H   0  0  0  0  0  0  0  0  0  0  0  0
    9.8770    0.8710   25.8050 H   0  0  0  0  0  0  0  0  0  0  0  0
    9.6680    2.1000   24.5810 H   0  0  0  0  0  0  0  0  0  0  0  0
    8.3190   -0.3520   24.1280 H   0  0  0  0  0  0  0  0  0  0  0  0
    5.7630    3.0450   23.0310 H   0  0  0  0  0  0  0  0  0  0  0  0
    5.9570    1.6620   22.0190 H   0  0  0  0  0  0  0  0  0  0  0  0
    3.5920    1.5480   21.9890 H   0  0  0  0  0  0  0  0  0  0  0  0
    3.6380    3.0610   22.8150 H   0  0  0  0  0  0  0  0  0  0  0  0
    4.1240   -0.3310   24.1920 H   0  0  0  0  0  0  0  0  0  0  0  0
    3.4800    0.4620   25.6190 H   0  0  0  0  0  0  0  0  0  0  0  0
    5.2620    1.9410   25.6980 H   0  0  0  0  0  0  0  0  0  0  0  0
    5.8060    0.2840   25.7950 H   0  0  0  0  0  0  0  0  0  0  0  0
    8.3230   -1.7930   22.9970 H   0  0  0  0  0  0  0  0  0  0  0  0
    6.5230   -1.4430   21.6210 H   0  0  0  0  0  0  0  0  0  0  0  0
    4.7960    0.4700   21.3140 H   0  0  0  0  0  0  0  0  0  0  0  0
    3.6650    1.8220   19.3480 H   0  0  0  0  0  0  0  0  0  0  0  0
    4.8030    1.8250   17.1340 H   0  0  0  0  0  0  0  0  0  0  0  0
    7.8780   -0.5740   18.4770 H   0  0  0  0  0  0  0  0  0  0  0  0
   10.4700   -2.0480   21.5230 H   0  0  0  0  0  0  0  0  0  0  0  0
  1  2  3  0
  2  3  1  0
  3  4  2  0
  4  5  1  0
  5  6  2  0
  6  7  1  0
  7  8  1  0
  8  9  1  0
  9 10  2  0
  9 11  1  0
 11 12  1  0
 12 13  1  0
 13 14  1  0
 14 15  1  0
 11 16  1  0
 15 16  1  0
  6 17  1  0
 17 18  1  0
 18 19  1  0
 19 20  2  0
 19 21  1  0
 21 22  1  0
 22 23  2  0
 23 24  1  0
 24 25  2  0
 25 26  1  0
 22 27  1  0
 26 27  2  0
  3 28  1  0
 17 28  2  0
  4 29  1  0
  5 30  1  0
  7 31  1  0
  7 32  1  0
  8 33  1  0
 12 34  1  0
 12 35  1  0
 13 36  1  0
 13 37  1  0
 15 38  1  0
 15 39  1  0
 16 40  1  0
 16 41  1  0
 18 42  1  0
 21 43  1  0
 23 44  1  0
 24 45  1  0
 25 46  1  0
 27 47  1  0
 28 48  1  0
M  END
