
     RDKit          3D

 42 44  0  0  0  0  0  0  0  0999 V2000
    5.3370   -2.7040   20.2710 N   0  0  0  0  0  0  0  0  0  0  0  0
    6.1050   -2.3270   21.0610 C   0  0  0  0  0  0  0  0  0  0  0  0
    7.1020   -1.8990   22.1200 C   0  0  1  0  0  0  0  0  0  0  0  0
    7.8300   -2.9200   22.6750 C   0  0  0  0  0  0  0  0  0  0  0  0
    8.8520   -2.7130   23.7770 C   0  0  0  0  0  0  0  0  0  0  0  0
    8.3290   -1.2920   23.6190 C   0  0  2  0  0  0  0  0  0  0  0  0
    9.0330   -0.3730   22.8750 C   0  0  0  0  0  0  0  0  0  0  0  0
    8.0240   -0.8860   21.8220 C   0  0  0  0  0  0  0  0  0  0  0  0
    8.5250   -0.7370   25.0790 C   0  0  0  0  0  0  0  0  0  0  0  0
    8.0300    0.5100   25.1370 N   0  0  0  0  0  0  0  0  0  0  0  0
    7.6690    1.0320   23.8880 C   0  0  0  0  0  0  0  0  0  0  0  0
    8.4430    1.8280   23.3680 O   0  0  0  0  0  0  0  0  0  0  0  0
    8.4790    2.5070   22.1350 C   0  0  0  0  0  0  0  0  0  0  0  0
    8.8210    3.9370   22.1430 N   0  0  0  0  0  0  0  0  0  0  0  0
    8.2990    1.8580   21.1040 O   0  0  0  0  0  0  0  0  0  0  0  0
    6.5010    0.4150   23.5540 N   0  0  2  0  0  0  0  0  0  0  0  0
    5.8970    1.0640   22.5520 C   0  0  0  0  0  0  0  0  0  0  0  0
    4.5090    1.0250   22.3120 C   0  0  0  0  0  0  0  0  0  0  0  0
    3.9080    1.0490   23.3790 O   0  0  0  0  0  0  0  0  0  0  0  0
    4.4720    0.1060   24.2660 C   0  0  0  0  0  0  0  0  0  0  0  0
    5.7080    0.4500   24.8180 C   0  0  0  0  0  0  0  0  0  0  0  0
    6.9390   -0.9040   23.2590 C   0  0  0  0  0  0  0  0  0  0  0  0
    6.4630   -1.5170   22.9270 H   0  0  0  0  0  0  0  0  0  0  0  0
    7.6870   -3.9410   22.2940 H   0  0  0  0  0  0  0  0  0  0  0  0
    9.4620   -2.2170   24.5180 H   0  0  0  0  0  0  0  0  0  0  0  0
    9.4540   -0.3900   23.8740 H   0  0  0  0  0  0  0  0  0  0  0  0
    8.0160   -0.4780   20.8000 H   0  0  0  0  0  0  0  0  0  0  0  0
    9.5700   -0.7160   25.3950 H   0  0  0  0  0  0  0  0  0  0  0  0
    7.9680   -1.3240   25.8030 H   0  0  0  0  0  0  0  0  0  0  0  0
    7.5020    0.7740   25.9730 H   0  0  0  0  0  0  0  0  0  0  0  0
    9.2670    4.3970   21.3660 H   0  0  0  0  0  0  0  0  0  0  0  0
    8.8140    4.4250   23.0320 H   0  0  0  0  0  0  0  0  0  0  0  0
    6.3990    0.6950   21.6520 H   0  0  0  0  0  0  0  0  0  0  0  0
    6.1890    2.1210   22.5840 H   0  0  0  0  0  0  0  0  0  0  0  0
    4.2600    0.0870   21.8200 H   0  0  0  0  0  0  0  0  0  0  0  0
    4.0680    1.8190   21.7170 H   0  0  0  0  0  0  0  0  0  0  0  0
    3.6880   -0.1520   24.9740 H   0  0  0  0  0  0  0  0  0  0  0  0
    4.6260   -0.7980   23.6770 H   0  0  0  0  0  0  0  0  0  0  0  0
    6.0570   -0.2860   25.5520 H   0  0  0  0  0  0  0  0  0  0  0  0
    5.7380    1.4620   25.2420 H   0  0  0  0  0  0  0  0  0  0  0  0
    6.2270   -1.5780   23.7500 H   0  0  0  0  0  0  0  0  0  0  0  0
    6.7970   -0.9870   22.1800 H   0  0  0  0  0  0  0  0  0  0  0  0
  1  2  3  0
  2  3  1  0
  3  4  1  0
  4  5  2  0
  6  5  1  1
  6  7  1  0
  3  8  1  0
  7  8  2  0
  6  9  1  0
  9 10  1  0
 10 11  1  0
 11 12  2  3
 12 13  1  0
 13 14  1  0
 13 15  2  0
 16 11  1  1
 16 17  1  0
 17 18  1  0
 18 19  1  0
 19 20  1  0
 16 21  1  0
 20 21  1  0
  6 22  1  0
 16 22  1  0
  3 23  1  1
  4 24  1  0
  5 25  1  0
  7 26  1  0
  8 27  1  0
  9 28  1  0
  9 29  1  0
 10 30  1  0
 14 31  1  0
 14 32  1  0
 17 33  1  0
 17 34  1  0
 18 35  1  0
 18 36  1  0
 20 37  1  0
 20 38  1  0
 21 39  1  0
 21 40  1  0
 22 41  1  0
 22 42  1  0
M  CHG  2  12   1  16   1
M  END
