
     RDKit          3D

 47 48  0  0  0  0  0  0  0  0999 V2000
    6.5660   -5.3010   26.4040 C   0  0  0  0  0  0  0  0  0  0  0  0
    8.0650   -4.4110   26.0600 S   0  0  2  0  0  0  0  0  0  0  0  0
    9.1450   -5.3500   25.8720 O   0  0  0  0  0  0  0  0  0  0  0  0
    8.1290   -3.3410   27.0220 O   0  0  0  0  0  0  0  0  0  0  0  0
    7.6910   -3.6770   24.5830 N   0  0  0  0  0  0  0  0  0  0  0  0
    8.7820   -3.2050   23.6960 C   0  0  0  0  0  0  0  0  0  0  0  0
    8.7510   -1.7930   23.6070 C   0  0  0  0  0  0  0  0  0  0  0  0
   10.0640   -1.0060   23.4870 C   0  0  0  0  0  0  0  0  0  0  0  0
   11.0730   -1.5710   22.5820 C   0  0  0  0  0  0  0  0  0  0  0  0
   12.3060   -1.0680   22.3260 C   0  0  0  0  0  0  0  0  0  0  0  0
   13.0140   -1.9400   21.3830 C   0  0  0  0  0  0  0  0  0  0  0  0
   13.5060   -2.6730   20.7020 N   0  0  0  0  0  0  0  0  0  0  0  0
   12.7570    0.0980   22.9110 C   0  0  0  0  0  0  0  0  0  0  0  0
   11.8130    0.7740   23.8560 C   0  0  0  0  0  0  0  0  0  0  0  0
   10.4270    0.1840   24.1490 C   0  0  0  0  0  0  0  0  0  0  0  0
    9.5990    0.8120   25.0360 C   0  0  0  0  0  0  0  0  0  0  0  0
    8.2090    0.6420   24.6840 N   0  0  0  0  0  0  0  0  0  0  0  0
    7.6320    1.6260   23.9630 C   0  0  0  0  0  0  0  0  0  0  0  0
    8.2600    2.5870   23.5330 O   0  0  0  0  0  0  0  0  0  0  0  0
    6.2910    1.4430   23.7590 N   0  0  0  0  0  0  0  0  0  0  0  0
    5.4800    1.2030   24.9600 C   0  0  0  0  0  0  0  0  0  0  0  0
    4.3010    0.5640   24.5870 C   0  0  0  0  0  0  0  0  0  0  0  0
    3.5460    1.3880   23.6780 O   0  0  0  0  0  0  0  0  0  0  0  0
    4.2740    1.6340   22.4580 C   0  0  0  0  0  0  0  0  0  0  0  0
    5.6040    2.2690   22.7740 C   0  0  0  0  0  0  0  0  0  0  0  0
    5.9250   -4.6780   27.0340 H   0  0  0  0  0  0  0  0  0  0  0  0
    6.0410   -5.5150   25.4670 H   0  0  0  0  0  0  0  0  0  0  0  0
    6.8030   -6.2310   26.9290 H   0  0  0  0  0  0  0  0  0  0  0  0
    6.8380   -3.1390   24.6570 H   0  0  0  0  0  0  0  0  0  0  0  0
    8.6410   -3.6250   22.6970 H   0  0  0  0  0  0  0  0  0  0  0  0
    9.7200   -3.5660   24.1020 H   0  0  0  0  0  0  0  0  0  0  0  0
    8.2470   -1.4230   24.5100 H   0  0  0  0  0  0  0  0  0  0  0  0
    8.0810   -1.5300   22.7810 H   0  0  0  0  0  0  0  0  0  0  0  0
   10.8160   -2.5020   22.0580 H   0  0  0  0  0  0  0  0  0  0  0  0
   13.7460    0.5120   22.7070 H   0  0  0  0  0  0  0  0  0  0  0  0
   12.1230    1.6970   24.3420 H   0  0  0  0  0  0  0  0  0  0  0  0
    9.8190    1.8860   25.0620 H   0  0  0  0  0  0  0  0  0  0  0  0
    9.7450    0.4390   26.0440 H   0  0  0  0  0  0  0  0  0  0  0  0
    7.5860    0.2430   25.3880 H   0  0  0  0  0  0  0  0  0  0  0  0
    6.0900    0.7360   25.7290 H   0  0  0  0  0  0  0  0  0  0  0  0
    5.2230    2.1950   25.3340 H   0  0  0  0  0  0  0  0  0  0  0  0
    3.6760    0.3760   25.4630 H   0  0  0  0  0  0  0  0  0  0  0  0
    4.5080   -0.3970   24.1030 H   0  0  0  0  0  0  0  0  0  0  0  0
    4.4230    0.6940   21.9170 H   0  0  0  0  0  0  0  0  0  0  0  0
    3.6710    2.2970   21.8330 H   0  0  0  0  0  0  0  0  0  0  0  0
    5.4590    3.2930   23.1230 H   0  0  0  0  0  0  0  0  0  0  0  0
    6.2340    2.2940   21.8790 H   0  0  0  0  0  0  0  0  0  0  0  0
  1  2  1  0
  2  3  2  0
  2  4  2  0
  2  5  1  6
  5  6  1  0
  6  7  1  0
  7  8  1  0
  8  9  2  0
  9 10  1  0
 10 11  1  0
 11 12  3  0
 10 13  2  0
 13 14  1  0
  8 15  1  0
 14 15  2  0
 15 16  1  0
 16 17  1  0
 17 18  1  0
 18 19  2  0
 18 20  1  0
 20 21  1  0
 21 22  1  0
 22 23  1  0
 23 24  1  0
 20 25  1  0
 24 25  1  0
  1 26  1  0
  1 27  1  0
  1 28  1  0
  5 29  1  0
  6 30  1  0
  6 31  1  0
  7 32  1  0
  7 33  1  0
  9 34  1  0
 13 35  1  0
 14 36  1  0
 16 37  1  0
 16 38  1  0
 17 39  1  0
 21 40  1  0
 21 41  1  0
 22 42  1  0
 22 43  1  0
 24 44  1  0
 24 45  1  0
 25 46  1  0
 25 47  1  0
M  END
