
     RDKit          3D

 19 20  0  0  0  0  0  0  0  0999 V2000
    8.1820   -3.2210   24.7050 N   0  0  0  0  0  0  0  0  0  0  0  0
    3.0280   -7.5840   25.2030 C   0  0  0  0  0  0  0  0  0  0  0  0
    9.2970   -5.4100   25.0050 O   0  0  0  0  0  0  0  0  0  0  0  0
    4.3340   -6.8400   25.3040 C   0  0  0  0  0  0  0  0  0  0  0  0
    7.2090   -2.9680   22.0550 N   0  0  0  0  0  0  0  0  0  0  0  0
    8.4460   -4.1700   26.9610 O   0  0  0  0  0  0  0  0  0  0  0  0
    5.1500   -6.6760   24.1950 C   0  0  0  0  0  0  0  0  0  0  0  0
    5.6820   -2.5730   20.4320 O   0  0  0  0  0  0  0  0  0  0  0  0
    6.3540   -6.0020   24.2760 C   0  0  0  0  0  0  0  0  0  0  0  0
    6.7520   -5.4640   25.4890 C   0  0  0  0  0  0  0  0  0  0  0  0
    5.9540   -5.6140   26.6130 C   0  0  0  0  0  0  0  0  0  0  0  0
    4.7570   -6.2980   26.5070 C   0  0  0  0  0  0  0  0  0  0  0  0
    9.1130   -3.0600   23.5770 C   0  0  0  0  0  0  0  0  0  0  0  0
    8.4890   -3.6210   22.3280 C   0  0  0  0  0  0  0  0  0  0  0  0
    6.2610   -3.1070   23.1610 C   0  0  0  0  0  0  0  0  0  0  0  0
    6.8570   -2.6150   24.4560 C   0  0  0  0  0  0  0  0  0  0  0  0
    6.7220   -3.0970   20.8050 C   0  0  0  0  0  0  0  0  0  0  0  0
    7.4770   -4.0090   19.8920 C   0  0  0  0  0  0  0  0  0  0  0  0
    8.2890   -4.5940   25.6040 S   0  0  1  0  0  0  0  0  0  0  0  0
  1 13  1  0
  1 16  1  0
  1 19  1  0
 13 14  1  0
 16 15  1  0
 19  3  2  0
 19  6  2  0
 19 10  1  1
  2  4  1  0
  4  7  2  0
  4 12  1  0
  7  9  1  0
 12 11  2  0
  5 14  1  0
  5 15  1  0
  5 17  1  0
 17  8  2  0
 17 18  1  0
  9 10  2  0
 10 11  1  0
M  END
