
     RDKit          3D

 19 21  0  0  0  0  0  0  0  0999 V2000
    5.9590   -4.1040   19.8180 O   0  0  0  0  0  0  0  0  0  0  0  0
    6.7650   -3.1860   19.9010 C   0  0  0  0  0  0  0  0  0  0  0  0
    7.4900   -2.7290   18.6660 C   0  0  0  0  0  0  0  0  0  0  0  0
    7.0350   -2.5620   21.0790 N   0  0  0  0  0  0  0  0  0  0  0  0
    6.1810   -2.7630   22.2390 C   0  0  0  0  0  0  0  0  0  0  0  0
    6.9770   -3.4520   23.3130 C   0  0  0  0  0  0  0  0  0  0  0  0
    6.3060   -4.2300   24.2540 C   0  0  0  0  0  0  0  0  0  0  0  0
    7.0050   -4.8740   25.2560 C   0  0  0  0  0  0  0  0  0  0  0  0
    8.3800   -4.7580   25.3220 C   0  0  0  0  0  0  0  0  0  0  0  0
    9.0600   -3.9890   24.3900 C   0  0  0  0  0  0  0  0  0  0  0  0
    8.3700   -3.2970   23.3870 C   0  0  0  0  0  0  0  0  0  0  0  0
    9.1340   -2.5000   22.3320 C   0  0  2  0  0  0  0  0  0  0  0  0
   10.2020   -1.5440   22.8240 C   0  0  0  0  0  0  0  0  0  0  0  0
    9.8980   -0.4740   23.6570 C   0  0  0  0  0  0  0  0  0  0  0  0
   10.8840    0.4150   24.0600 C   0  0  0  0  0  0  0  0  0  0  0  0
   12.1760    0.2740   23.6070 C   0  0  0  0  0  0  0  0  0  0  0  0
   12.4890   -0.7560   22.7510 C   0  0  0  0  0  0  0  0  0  0  0  0
   11.5080   -1.6530   22.3570 C   0  0  0  0  0  0  0  0  0  0  0  0
    8.1940   -1.7330   21.4050 C   0  0  0  0  0  0  0  0  0  0  0  0
  1  2  2  0
  2  3  1  0
  2  4  1  0
  4  5  1  0
  4 19  1  0
  5  6  1  0
 19 12  1  0
  6  7  1  0
  6 11  2  0
  7  8  2  0
 11 10  1  0
 11 12  1  0
  8  9  1  0
  9 10  2  0
 12 13  1  1
 13 14  2  0
 13 18  1  0
 14 15  1  0
 18 17  2  0
 15 16  2  0
 16 17  1  0
M  END
