
     RDKit          3D

 13 13  0  0  0  0  0  0  0  0999 V2000
    6.7870    2.6170   -6.5870 N   0  0  0  0  0  0  0  0  0  0  0  0
    4.3740   -2.1120   -8.3980 C   0  0  0  0  0  0  0  0  0  0  0  0
    4.5510    2.2220   -5.7970 O   0  0  0  0  0  0  0  0  0  0  0  0
    5.8190   -1.8480   -8.1870 C   0  0  0  0  0  0  0  0  0  0  0  0
    6.3600    0.6480   -5.1970 O   0  0  0  0  0  0  0  0  0  0  0  0
    6.6930   -2.9160   -8.4050 C   0  0  0  0  0  0  0  0  0  0  0  0
    8.0660   -2.7180   -8.2500 C   0  0  0  0  0  0  0  0  0  0  0  0
    8.5930   -1.4760   -7.8620 C   0  0  0  0  0  0  0  0  0  0  0  0
    7.7160   -0.4190   -7.6440 C   0  0  0  0  0  0  0  0  0  0  0  0
    6.3290   -0.5770   -7.8060 C   0  0  0  0  0  0  0  0  0  0  0  0
    5.4640    0.6530   -7.6200 C   0  0  0  0  0  0  0  0  0  0  0  0
    8.8970   -3.7240   -8.5080 F   0  0  0  0  0  0  0  0  0  0  0  0
    5.7190    1.4970   -6.1330 S   0  0  2  0  0  0  0  0  0  0  0  0
 13  1  1  6
  2  4  1  0
  3 13  2  0
  4  6  2  0
  4 10  1  0
  5 13  2  0
  6  7  1  0
  7  8  2  0
  7 12  1  0
  8  9  1  0
  9 10  2  0
 10 11  1  0
 11 13  1  0
M  END
