
     RDKit          3D

 30 32  0  0  0  0  0  0  0  0999 V2000
   23.7520   -8.0780    3.6410 N   0  0  0  0  0  0  0  0  0  0  0  0
   25.1170   -7.1940    5.4870 C   0  0  0  0  0  0  0  0  0  0  0  0
   23.6990   -7.2390    4.8740 C   0  0  2  0  0  0  0  0  0  0  0  0
   23.8070   -6.0140    2.3750 N   0  0  0  0  0  0  0  0  0  0  0  0
   22.6160   -7.6980    5.8790 C   0  0  0  0  0  0  0  0  0  0  0  0
   24.3150   -5.8840   -0.0340 N   0  0  0  0  0  0  0  0  0  0  0  0
   24.1590   -9.5030    3.8060 C   0  0  0  0  0  0  0  0  0  0  0  0
   24.7790   -8.1440   -1.0310 N   0  0  0  0  0  0  0  0  0  0  0  0
   23.9640   -7.4040    2.3990 C   0  0  0  0  0  0  0  0  0  0  0  0
   24.8180   -9.4460   -0.5980 N   0  0  0  0  0  0  0  0  0  0  0  0
   23.9900   -5.3630    1.1740 C   0  0  0  0  0  0  0  0  0  0  0  0
   24.4640   -7.2700    0.0120 C   0  0  0  0  0  0  0  0  0  0  0  0
   25.0700   -7.7850   -2.4310 C   0  0  0  0  0  0  0  0  0  0  0  0
   24.5410   -9.4420    0.7180 C   0  0  0  0  0  0  0  0  0  0  0  0
   24.3030   -8.0960    1.1860 C   0  0  0  0  0  0  0  0  0  0  0  0
   28.0840   21.8330   -2.3210 N   0  0  0  0  0  0  0  0  0  0  0  0
   27.4770   23.3670   -4.2310 C   0  0  0  0  0  0  0  0  0  0  0  0
   28.6080   22.5290   -3.5690 C   0  0  1  0  0  0  0  0  0  0  0  0
   27.7870   19.7660   -3.5380 N   0  0  0  0  0  0  0  0  0  0  0  0
   29.8580   23.4180   -3.3420 C   0  0  0  0  0  0  0  0  0  0  0  0
   27.7820   17.5150   -2.5530 N   0  0  0  0  0  0  0  0  0  0  0  0
   28.2600   22.5470   -1.0310 C   0  0  0  0  0  0  0  0  0  0  0  0
   27.9910   17.5670   -0.0580 N   0  0  0  0  0  0  0  0  0  0  0  0
   27.9430   20.3970   -2.3190 C   0  0  0  0  0  0  0  0  0  0  0  0
   28.1010   18.5200    0.9280 N   0  0  0  0  0  0  0  0  0  0  0  0
   27.7190   18.3920   -3.5760 C   0  0  0  0  0  0  0  0  0  0  0  0
   27.9200   18.1520   -1.3290 C   0  0  0  0  0  0  0  0  0  0  0  0
   27.9830   16.1280    0.2370 C   0  0  0  0  0  0  0  0  0  0  0  0
   28.1120   19.7250    0.3170 C   0  0  0  0  0  0  0  0  0  0  0  0
   28.0020   19.5820   -1.1260 C   0  0  0  0  0  0  0  0  0  0  0  0
  1  3  1  0
  1  7  1  0
  1  9  1  0
  3  2  1  1
  3  5  1  0
  4  9  2  0
  4 11  1  0
  6 11  2  0
  6 12  1  0
  8 10  1  0
  8 12  1  0
  8 13  1  0
  9 15  1  0
 10 14  2  0
 12 15  2  0
 14 15  1  0
 16 18  1  0
 16 22  1  0
 16 24  1  0
 18 17  1  1
 18 20  1  0
 19 24  1  0
 19 26  1  0
 21 26  1  0
 21 27  1  0
 23 25  1  0
 23 27  1  0
 23 28  1  0
 24 30  1  0
 25 29  1  0
 27 30  1  0
 29 30  1  0
M  END
