
     RDKit          3D

  7  7  0  0  0  0  0  0  0  0999 V2000
   24.5660   -7.7400    5.2090 C   0  0  2  0  0  0  0  0  0  0  0  0
   24.7060   -7.2450    3.9220 O   0  0  0  0  0  0  0  0  0  0  0  0
   23.4970   -8.8590    5.2280 C   0  0  0  0  0  0  0  0  0  0  0  0
   21.2820   -7.5570    5.4940 O   0  0  0  0  0  0  0  0  0  0  0  0
   23.6860   -6.8050    6.0680 C   0  0  0  0  0  0  0  0  0  0  0  0
   22.2800   -8.3770    7.5070 O   0  0  0  0  0  0  0  0  0  0  0  0
   22.4390   -7.9370    6.1930 S   0  0  2  0  0  0  0  0  0  0  0  0
  1  2  1  6
  1  3  1  0
  1  5  1  0
  7  3  1  6
  4  7  2  0
  5  7  1  0
  6  7  2  0
M  END
