
     RDKit          3D

 20 22  0  0  0  0  0  0  0  0999 V2000
    8.8870   -3.3710   18.3970 S   0  0  0  0  0  0  0  0  0  0  0  0
    6.0690   -4.1980   19.9960 O   0  0  0  0  0  0  0  0  0  0  0  0
    6.7990   -3.2190   20.0630 C   0  0  0  0  0  0  0  0  0  0  0  0
    7.3020   -2.5950   18.7920 C   0  0  0  0  0  0  0  0  0  0  0  0
    7.1680   -2.6670   21.2510 N   0  0  0  0  0  0  0  0  0  0  0  0
    6.4780   -3.0380   22.4870 C   0  0  0  0  0  0  0  0  0  0  0  0
    7.4610   -3.5710   23.4930 C   0  0  0  0  0  0  0  0  0  0  0  0
    7.0020   -4.4000   24.5170 C   0  0  0  0  0  0  0  0  0  0  0  0
    7.8770   -4.9070   25.4590 C   0  0  0  0  0  0  0  0  0  0  0  0
    9.2210   -4.5970   25.3900 C   0  0  0  0  0  0  0  0  0  0  0  0
    9.6910   -3.7760   24.3770 C   0  0  0  0  0  0  0  0  0  0  0  0
    8.8180   -3.2430   23.4190 C   0  0  0  0  0  0  0  0  0  0  0  0
    9.3630   -2.3520   22.3070 C   0  0  2  0  0  0  0  0  0  0  0  0
   10.3280   -1.2910   22.7950 C   0  0  0  0  0  0  0  0  0  0  0  0
   11.6120   -1.1990   22.2710 C   0  0  0  0  0  0  0  0  0  0  0  0
   12.4940   -0.2300   22.7210 C   0  0  0  0  0  0  0  0  0  0  0  0
   12.1050    0.6650   23.6920 C   0  0  0  0  0  0  0  0  0  0  0  0
   10.8370    0.5910   24.2190 C   0  0  0  0  0  0  0  0  0  0  0  0
    9.9540   -0.3800   23.7750 C   0  0  0  0  0  0  0  0  0  0  0  0
    8.2520   -1.7090   21.4820 C   0  0  0  0  0  0  0  0  0  0  0  0
  1  4  1  0
  2  3  2  0
  3  4  1  0
  3  5  1  0
  5  6  1  0
  5 20  1  0
  6  7  1  0
  7  8  1  0
  7 12  2  0
  8  9  2  0
  9 10  1  0
 10 11  2  0
 11 12  1  0
 12 13  1  0
 13 14  1  1
 13 20  1  0
 14 15  2  0
 14 19  1  0
 15 16  1  0
 16 17  2  0
 17 18  1  0
 18 19  2  0
M  END
