
     RDKit          3D

 19 20  0  0  0  0  0  0  0  0999 V2000
    8.6300   -3.0930   17.9110 S   0  0  0  0  0  0  0  0  0  0  0  0
    6.6500   -2.0890   24.1420 N   0  0  0  0  0  0  0  0  0  0  0  0
    1.2070   -2.4430   27.7480 C   0  0  0  0  0  0  0  0  0  0  0  0
    7.4970   -1.7810   26.2100 O   0  0  0  0  0  0  0  0  0  0  0  0
    2.5900   -2.3310   27.1690 C   0  0  0  0  0  0  0  0  0  0  0  0
    7.2560   -3.3400   21.6880 N   0  0  0  0  0  0  0  0  0  0  0  0
    6.3340   -3.7150   19.6600 O   0  0  0  0  0  0  0  0  0  0  0  0
    3.6290   -3.1220   27.6300 C   0  0  0  0  0  0  0  0  0  0  0  0
    4.9030   -3.0190   27.0980 C   0  0  0  0  0  0  0  0  0  0  0  0
    5.1640   -2.1080   26.0870 C   0  0  0  0  0  0  0  0  0  0  0  0
    4.1310   -1.3180   25.6150 C   0  0  0  0  0  0  0  0  0  0  0  0
    2.8610   -1.4310   26.1530 C   0  0  0  0  0  0  0  0  0  0  0  0
    6.5330   -1.9860   25.4800 C   0  0  0  0  0  0  0  0  0  0  0  0
    7.8530   -1.6970   23.4070 C   0  0  0  0  0  0  0  0  0  0  0  0
    8.3430   -2.8280   22.5270 C   0  0  0  0  0  0  0  0  0  0  0  0
    6.1170   -3.7920   22.4790 C   0  0  0  0  0  0  0  0  0  0  0  0
    5.5920   -2.6280   23.2860 C   0  0  0  0  0  0  0  0  0  0  0  0
    7.2870   -3.3590   20.3410 C   0  0  0  0  0  0  0  0  0  0  0  0
    8.5670   -2.8890   19.7040 C   0  0  0  0  0  0  0  0  0  0  0  0
  1 19  1  0
  2 13  1  0
  2 14  1  0
  2 17  1  0
  3  5  1  0
  4 13  2  0
  5  8  2  0
  5 12  1  0
  6 15  1  0
  6 16  1  0
  6 18  1  0
  7 18  2  0
  8  9  1  0
  9 10  2  0
 10 11  1  0
 10 13  1  0
 11 12  2  0
 14 15  1  0
 16 17  1  0
 18 19  1  0
M  END
