
     RDKit          3D

 16 17  0  0  0  0  0  0  0  0999 V2000
    9.4190    1.1020   21.0000 O   0  0  0  0  0  0  0  0  0  0  0  0
    8.8650    0.3120   21.6960 C   0  0  0  0  0  0  0  0  0  0  0  0
    9.4090   -0.1550   23.0330 C   0  0  0  0  0  0  0  0  0  0  0  0
   10.9230   -0.0800   23.0900 C   0  0  2  0  0  0  0  0  0  0  0  0
   11.5620   -1.0470   22.0960 C   0  0  0  0  0  0  0  0  0  0  0  0
   12.8180   -1.7130   22.6470 C   0  0  0  0  0  0  0  0  0  0  0  0
   13.6100   -0.8590   23.6290 C   0  0  0  0  0  0  0  0  0  0  0  0
   12.7710   -0.1530   24.6900 C   0  0  0  0  0  0  0  0  0  0  0  0
   11.2810   -0.4020   24.5270 C   0  0  0  0  0  0  0  0  0  0  0  0
    7.6120   -0.2560   21.3260 N   0  0  0  0  0  0  0  0  0  0  0  0
    7.0000    0.1710   20.1090 C   0  0  0  0  0  0  0  0  0  0  0  0
    5.7560    0.7730   20.2490 C   0  0  0  0  0  0  0  0  0  0  0  0
    5.1420    1.2080   19.0830 C   0  0  0  0  0  0  0  0  0  0  0  0
    5.8050    1.0240   17.8770 C   0  0  0  0  0  0  0  0  0  0  0  0
    7.0000    0.4540   17.8140 N   0  0  0  0  0  0  0  0  0  0  0  0
    7.6260    0.0260   18.8870 C   0  0  0  0  0  0  0  0  0  0  0  0
  1  2  2  0
  2  3  1  0
  2 10  1  0
  4  3  1  1
  4  5  1  0
  4  9  1  0
  5  6  1  0
  6  7  1  0
  7  8  1  0
  8  9  1  0
 10 11  1  0
 11 12  2  0
 11 16  1  0
 12 13  1  0
 13 14  2  0
 14 15  1  0
 15 16  2  0
M  END
