
     RDKit          3D

 13 13  0  0  0  0  0  0  0  0999 V2000
    8.4800   -3.2690   18.3190 S   0  0  0  0  0  0  0  0  0  0  0  0
    6.1620   -5.1120   24.2830 N   0  0  0  0  0  0  0  0  0  0  0  0
    4.8550   -6.1170   26.0840 C   0  0  0  0  0  0  0  0  0  0  0  0
    7.1430   -5.5350   26.2540 O   0  0  0  0  0  0  0  0  0  0  0  0
    6.1390   -5.5650   25.5510 C   0  0  0  0  0  0  0  0  0  0  0  0
    6.8380   -4.9070   21.5490 N   0  0  0  0  0  0  0  0  0  0  0  0
    5.9240   -4.2360   19.5880 O   0  0  0  0  0  0  0  0  0  0  0  0
    5.1980   -5.5020   23.2490 C   0  0  0  0  0  0  0  0  0  0  0  0
    5.9020   -5.9390   21.9810 C   0  0  0  0  0  0  0  0  0  0  0  0
    7.8250   -4.5880   22.5790 C   0  0  0  0  0  0  0  0  0  0  0  0
    7.1270   -4.1130   23.8300 C   0  0  0  0  0  0  0  0  0  0  0  0
    6.8660   -4.2610   20.3680 C   0  0  0  0  0  0  0  0  0  0  0  0
    8.1620   -3.5660   20.0640 C   0  0  0  0  0  0  0  0  0  0  0  0
  1 13  1  0
  2  5  1  0
  2  8  1  0
  2 11  1  0
  3  5  1  0
  4  5  2  0
  6  9  1  0
  6 10  1  0
  6 12  1  0
  7 12  2  0
  8  9  1  0
 10 11  1  0
 12 13  1  0
M  END
