
     RDKit          3D

 16 16  0  0  0  0  0  0  0  0999 V2000
    7.0100   -3.2670   26.5090 N   0  0  0  0  0  0  0  0  0  0  0  0
    8.9900   -4.6610   27.0710 C   0  0  0  0  0  0  0  0  0  0  0  0
    5.0040   -3.1490   25.4650 O   0  0  0  0  0  0  0  0  0  0  0  0
    7.5460   -4.3330   27.3930 C   0  0  2  0  0  0  0  0  0  0  0  0
    6.9490   -4.3810   21.3520 N   0  0  0  0  0  0  0  0  0  0  0  0
    5.6020   -4.9640   19.6380 O   0  0  0  0  0  0  0  0  0  0  0  0
    6.6610   -5.5620   27.4250 C   0  0  0  0  0  0  0  0  0  0  0  0
    7.5240   -1.9190   26.7740 C   0  0  0  0  0  0  0  0  0  0  0  0
    6.1880   -3.5010   25.4660 C   0  0  0  0  0  0  0  0  0  0  0  0
    6.8390   -4.0730   24.2180 C   0  0  1  0  0  0  0  0  0  0  0  0
    5.8990   -5.0130   23.4610 C   0  0  0  0  0  0  0  0  0  0  0  0
    6.5590   -5.5130   22.2010 C   0  0  0  0  0  0  0  0  0  0  0  0
    7.8840   -3.4640   22.0120 C   0  0  0  0  0  0  0  0  0  0  0  0
    7.2820   -2.9340   23.2920 C   0  0  0  0  0  0  0  0  0  0  0  0
    6.4580   -4.2240   20.1020 C   0  0  0  0  0  0  0  0  0  0  0  0
    7.0040   -3.0910   19.2740 C   0  0  0  0  0  0  0  0  0  0  0  0
  1  4  1  0
  1  8  1  0
  1  9  1  0
  4  2  1  6
  3  9  2  0
  4  7  1  0
  5 12  1  0
  5 13  1  0
  5 15  1  0
  6 15  2  0
 10  9  1  1
 10 11  1  0
 10 14  1  0
 11 12  1  0
 13 14  1  0
 15 16  1  0
M  END
