
     RDKit          3D

 18 19  0  0  0  0  0  0  0  0999 V2000
    1.4450    3.8310   25.1930 C   0  0  0  0  0  0  0  0  0  0  0  0
    0.4450    4.5400   25.8480 C   0  0  0  0  0  0  0  0  0  0  0  0
   -0.8610    4.0710   25.8830 C   0  0  0  0  0  0  0  0  0  0  0  0
   -1.1770    2.8770   25.2530 C   0  0  0  0  0  0  0  0  0  0  0  0
   -0.1860    2.1670   24.5890 C   0  0  0  0  0  0  0  0  0  0  0  0
    1.1280    2.6340   24.5580 C   0  0  0  0  0  0  0  0  0  0  0  0
    2.1860    1.8200   23.8150 C   0  0  0  0  0  0  0  0  0  0  0  0
    2.0580    0.6400   23.7610 O   0  0  0  0  0  0  0  0  0  0  0  0
    3.3230    2.4740   23.1750 N   0  0  0  0  0  0  0  0  0  0  0  0
    4.3320    1.7170   22.4340 C   0  0  0  0  0  0  0  0  0  0  0  0
    3.8370    1.6420   20.9890 C   0  0  0  0  0  0  0  0  0  0  0  0
    4.8370    1.1650   19.9330 C   0  0  0  0  0  0  0  0  0  0  0  0
    5.8510    0.2440   20.2010 C   0  0  0  0  0  0  0  0  0  0  0  0
    6.6970   -0.1250   19.1540 C   0  0  0  0  0  0  0  0  0  0  0  0
    6.5580    0.3740   17.9330 N   0  0  0  0  0  0  0  0  0  0  0  0
    5.6030    1.2370   17.6770 C   0  0  0  0  0  0  0  0  0  0  0  0
    4.7220    1.6620   18.6570 C   0  0  0  0  0  0  0  0  0  0  0  0
    2.7270    4.3200   25.1830 F   0  0  0  0  0  0  0  0  0  0  0  0
  1  2  2  0
  1  6  1  0
  1 18  1  0
  2  3  1  0
  3  4  2  0
  4  5  1  0
  5  6  2  0
  6  7  1  0
  7  8  2  0
  7  9  1  0
  9 10  1  0
 10 11  1  0
 11 12  1  0
 12 13  2  0
 12 17  1  0
 13 14  1  0
 14 15  2  0
 15 16  1  0
 16 17  2  0
M  END
