
     RDKit          3D

 19 20  0  0  0  0  0  0  0  0999 V2000
    8.5520   -3.3620   18.4750 S   0  0  0  0  0  0  0  0  0  0  0  0
    6.6570   -4.1600   21.3430 N   0  0  0  0  0  0  0  0  0  0  0  0
    6.9170   -3.0010   19.1830 C   0  0  0  0  0  0  0  0  0  0  0  0
    5.5240   -4.8790   19.5290 O   0  0  0  0  0  0  0  0  0  0  0  0
    6.3130   -4.0930   20.0350 C   0  0  0  0  0  0  0  0  0  0  0  0
    5.9270   -2.7000   25.2640 N   0  0  0  0  0  0  0  0  0  0  0  0
    7.7830   -2.7660   26.5460 O   0  0  0  0  0  0  0  0  0  0  0  0
    6.0050   -5.0860   22.2810 C   0  0  0  0  0  0  0  0  0  0  0  0
    5.4000   -4.3280   23.4600 C   0  0  0  0  0  0  0  0  0  0  0  0
    6.4610   -3.4680   24.1330 C   0  0  1  0  0  0  0  0  0  0  0  0
    7.0740   -2.5270   23.1060 C   0  0  0  0  0  0  0  0  0  0  0  0
    7.6910   -3.3340   21.9750 C   0  0  0  0  0  0  0  0  0  0  0  0
    6.7340   -2.2030   26.2310 C   0  0  0  0  0  0  0  0  0  0  0  0
    6.3550   -0.9030   26.8730 C   0  0  0  0  0  0  0  0  0  0  0  0
    7.0160   -0.5500   28.0460 C   0  0  0  0  0  0  0  0  0  0  0  0
    6.7220    0.6400   28.6910 C   0  0  0  0  0  0  0  0  0  0  0  0
    5.7760    1.4930   28.1720 C   0  0  0  0  0  0  0  0  0  0  0  0
    5.1210    1.1610   27.0070 C   0  0  0  0  0  0  0  0  0  0  0  0
    5.4070   -0.0280   26.3540 C   0  0  0  0  0  0  0  0  0  0  0  0
  1  3  1  0
  2  5  1  0
  2  8  1  0
  2 12  1  0
  3  5  1  0
  4  5  2  0
 10  6  1  1
  6 13  1  0
  7 13  2  0
  8  9  1  0
  9 10  1  0
 10 11  1  0
 11 12  1  0
 13 14  1  0
 14 15  2  0
 14 19  1  0
 15 16  1  0
 16 17  2  0
 17 18  1  0
 18 19  2  0
M  END
