
     RDKit          3D

  6  4  0  0  0  0  0  0  0  0999 V2000
    8.4630   -3.4740   18.6470 S   0  0  0  0  0  0  0  0  0  0  0  0
   10.1290   -5.6830   25.0990 N   0  0  0  0  0  0  0  0  0  0  0  0
    8.6800   -3.4480   23.3550 C   0  0  0  0  0  0  0  0  0  0  0  0
    8.0730   -4.6860   24.0150 C   0  0  0  0  0  0  0  0  0  0  0  0
    8.4470   -4.9200   26.4430 N   0  0  0  0  0  0  0  0  0  0  0  0
    8.9630   -5.1340   25.1750 C   0  0  0  0  0  0  0  0  0  0  0  0
  2  6  2  0
  3  4  1  0
  4  6  1  0
  5  6  1  0
M  END
