
     RDKit          3D

 18 19  0  0  0  0  0  0  0  0999 V2000
    6.4980   -5.1740   21.7220 N   0  0  0  0  0  0  0  0  0  0  0  0
    7.6970   -3.5840   20.2860 C   0  0  0  0  0  0  0  0  0  0  0  0
    5.6790   -4.7100   19.6860 O   0  0  0  0  0  0  0  0  0  0  0  0
    0.8600   -1.3080   25.6190 Cl  0  0  0  0  0  0  0  0  0  0  0  0
    6.5530   -4.5490   20.5310 C   0  0  0  0  0  0  0  0  0  0  0  0
    5.6160   -5.3560   24.3700 N   0  0  0  0  0  0  0  0  0  0  0  0
    4.0960   -6.3790   26.0170 O   0  0  0  0  0  0  0  0  0  0  0  0
    2.3820   -3.8530   25.7650 S   0  0  0  0  0  0  0  0  0  0  0  0
    5.4470   -6.1230   22.0820 C   0  0  0  0  0  0  0  0  0  0  0  0
    6.1290   -5.1700   26.7610 O   0  0  0  0  0  0  0  0  0  0  0  0
    4.6760   -5.5980   23.2620 C   0  0  0  0  0  0  0  0  0  0  0  0
    6.6820   -4.4040   24.0180 C   0  0  0  0  0  0  0  0  0  0  0  0
    7.4300   -4.9450   22.8290 C   0  0  0  0  0  0  0  0  0  0  0  0
    4.0780   -3.8270   26.0030 C   0  0  0  0  0  0  0  0  0  0  0  0
    4.5760   -2.5720   26.2600 C   0  0  0  0  0  0  0  0  0  0  0  0
    3.6010   -1.5740   26.0090 C   0  0  0  0  0  0  0  0  0  0  0  0
    2.3460   -2.1370   25.8090 C   0  0  0  0  0  0  0  0  0  0  0  0
    5.0080   -5.2860   25.8810 S   0  0  1  0  0  0  0  0  0  0  0  0
  1  5  1  0
  1  9  1  0
  1 13  1  0
  2  5  1  0
  3  5  2  0
  4 17  1  0
  6 11  1  0
  6 12  1  0
  6 18  1  0
  7 18  2  0
  8 14  1  0
  8 17  1  0
  9 11  1  0
 10 18  2  0
 12 13  1  0
 14 15  2  0
 18 14  1  6
 15 16  1  0
 16 17  2  0
M  END
