
     RDKit          3D

 19 20  0  0  0  0  0  0  0  0999 V2000
    8.5280   -3.3650   18.4680 S   0  0  0  0  0  0  0  0  0  0  0  0
    5.1880   -4.7920   26.1290 N   0  0  0  0  0  0  0  0  0  0  0  0
    6.6450   -4.9100   26.2090 C   0  0  0  0  0  0  0  0  0  0  0  0
    4.5620   -5.6750   25.5650 O   0  0  0  0  0  0  0  0  0  0  0  0
    7.1680   -5.3020   27.4360 C   0  0  0  0  0  0  0  0  0  0  0  0
    6.9730   -4.2460   23.8870 N   0  0  0  0  0  0  0  0  0  0  0  0
    4.6550   -3.8350   26.6670 O   0  0  0  0  0  0  0  0  0  0  0  0
    8.5330   -5.4340   27.5870 C   0  0  0  0  0  0  0  0  0  0  0  0
    6.8450   -4.1570   21.0580 N   0  0  0  0  0  0  0  0  0  0  0  0
    5.3840   -4.5330   19.3810 O   0  0  0  0  0  0  0  0  0  0  0  0
    9.3820   -5.1790   26.5270 C   0  0  0  0  0  0  0  0  0  0  0  0
    8.8730   -4.7850   25.3000 C   0  0  0  0  0  0  0  0  0  0  0  0
    7.5000   -4.6440   25.1140 C   0  0  0  0  0  0  0  0  0  0  0  0
    7.3950   -3.0340   23.1740 C   0  0  0  0  0  0  0  0  0  0  0  0
    7.8530   -3.3620   21.7680 C   0  0  0  0  0  0  0  0  0  0  0  0
    6.4610   -5.3680   21.7810 C   0  0  0  0  0  0  0  0  0  0  0  0
    5.9530   -5.0060   23.1560 C   0  0  0  0  0  0  0  0  0  0  0  0
    6.3030   -3.8810   19.8530 C   0  0  0  0  0  0  0  0  0  0  0  0
    6.9150   -2.7780   19.0430 C   0  0  0  0  0  0  0  0  0  0  0  0
  1 19  1  0
  2  3  1  0
  2  4  1  0
  2  7  2  0
  3  5  2  0
  3 13  1  0
  5  8  1  0
  6 13  1  0
  6 14  1  0
  6 17  1  0
  8 11  2  0
  9 15  1  0
  9 16  1  0
  9 18  1  0
 10 18  2  0
 11 12  1  0
 12 13  2  0
 14 15  1  0
 16 17  1  0
 18 19  1  0
M  CHG  2   2   1   4  -1
M  END
