
     RDKit          3D

 14 14  0  0  0  0  0  0  0  0999 V2000
    7.2500   -4.0980   19.3970 S   0  0  0  0  0  0  0  0  0  0  0  0
   13.8350   -1.8580   21.3160 Cl  0  0  0  0  0  0  0  0  0  0  0  0
    7.7540   -1.2450   23.5390 C   0  0  0  0  0  0  0  0  0  0  0  0
    8.9220   -2.0190   22.9320 C   0  0  1  0  0  0  0  0  0  0  0  0
    8.5690   -2.4900   21.5800 N   0  0  0  0  0  0  0  0  0  0  0  0
    8.2160   -1.7110   20.5470 C   0  0  0  0  0  0  0  0  0  0  0  0
    8.1460   -0.4790   20.6120 O   0  0  0  0  0  0  0  0  0  0  0  0
    7.8770   -2.3860   19.2160 C   0  0  0  0  0  0  0  0  0  0  0  0
   10.2500   -1.2790   22.9510 C   0  0  0  0  0  0  0  0  0  0  0  0
   10.4660   -0.1320   23.7060 C   0  0  0  0  0  0  0  0  0  0  0  0
   11.7040    0.4860   23.7060 C   0  0  0  0  0  0  0  0  0  0  0  0
   12.7520   -0.0340   22.9810 C   0  0  0  0  0  0  0  0  0  0  0  0
   12.5380   -1.1750   22.2510 C   0  0  0  0  0  0  0  0  0  0  0  0
   11.3120   -1.7960   22.2340 C   0  0  0  0  0  0  0  0  0  0  0  0
  1  8  1  0
  2 13  1  0
  4  3  1  6
  4  5  1  0
  4  9  1  0
  5  6  1  0
  6  7  2  0
  6  8  1  0
  9 10  2  0
  9 14  1  0
 10 11  1  0
 11 12  2  0
 12 13  1  0
 13 14  2  0
M  END
