
     RDKit          3D

 11 11  0  0  0  0  0  0  0  0999 V2000
    9.3520    5.1750   22.9550 N   0  0  0  0  0  0  0  0  0  0  0  0
   12.4550    1.1360   23.1310 C   0  0  0  0  0  0  0  0  0  0  0  0
   10.1890    5.2490   25.2610 O   0  0  0  0  0  0  0  0  0  0  0  0
   11.2140    1.2020   23.7690 C   0  0  0  0  0  0  0  0  0  0  0  0
   11.5530    6.1960   23.4620 O   0  0  0  0  0  0  0  0  0  0  0  0
   10.6670    2.4740   24.0250 C   0  0  0  0  0  0  0  0  0  0  0  0
   11.3350    3.6620   23.6540 C   0  0  0  0  0  0  0  0  0  0  0  0
   12.5830    3.5320   23.0260 C   0  0  0  0  0  0  0  0  0  0  0  0
   13.1480    2.2850   22.7650 C   0  0  0  0  0  0  0  0  0  0  0  0
   13.2630   -0.6150   22.6840 Br  0  0  0  0  0  0  0  0  0  0  0  0
   10.6680    5.1850   23.9350 S   0  0  2  0  0  0  0  0  0  0  0  0
 11  1  1  6
  2  4  2  0
  2  9  1  0
  2 10  1  0
  3 11  2  0
  4  6  1  0
  5 11  2  0
  6  7  2  0
  7  8  1  0
  7 11  1  0
  8  9  2  0
M  END
