
     RDKit          3D

 17 18  0  0  0  0  0  0  0  0999 V2000
   24.8220  -14.5940   24.8900 C   0  0  0  0  0  0  0  0  0  0  0  0
   23.9480  -14.9260   26.1040 C   0  0  0  0  0  0  0  0  0  0  0  0
   23.7730  -14.1210   26.9560 O   0  0  0  0  0  0  0  0  0  0  0  0
   23.2870  -16.2060   26.2240 N   0  0  0  0  0  0  0  0  0  0  0  0
   23.4760  -17.2580   25.2490 C   0  0  0  0  0  0  0  0  0  0  0  0
   24.7310  -17.8400   25.2380 C   0  0  0  0  0  0  0  0  0  0  0  0
   25.0080  -18.8760   24.3750 C   0  0  0  0  0  0  0  0  0  0  0  0
   24.0410  -19.3280   23.4950 C   0  0  0  0  0  0  0  0  0  0  0  0
   24.4280  -20.4120   22.7030 O   0  0  0  0  0  0  0  0  0  0  0  0
   24.2410  -20.5460   21.3210 C   0  0  0  0  0  0  0  0  0  0  0  0
   24.8860  -19.7760   20.4570 N   0  0  0  0  0  0  0  0  0  0  0  0
   24.7300  -19.9810   19.1610 C   0  0  0  0  0  0  0  0  0  0  0  0
   23.9000  -21.0050   18.7020 C   0  0  0  0  0  0  0  0  0  0  0  0
   23.2600  -21.8050   19.6480 C   0  0  0  0  0  0  0  0  0  0  0  0
   23.4730  -21.5510   20.9220 N   0  0  0  0  0  0  0  0  0  0  0  0
   22.7670  -18.7740   23.5230 C   0  0  0  0  0  0  0  0  0  0  0  0
   22.4790  -17.7270   24.3970 C   0  0  0  0  0  0  0  0  0  0  0  0
  1  2  1  0
  2  3  2  0
  2  4  1  0
  4  5  1  0
  5  6  2  0
  5 17  1  0
  6  7  1  0
  7  8  2  0
  8  9  1  0
  8 16  1  0
  9 10  1  0
 10 11  2  0
 10 15  1  0
 11 12  1  0
 12 13  2  0
 13 14  1  0
 14 15  2  0
 16 17  2  0
M  END
