
     RDKit          3D

 18 19  0  0  0  0  0  0  0  0999 V2000
    8.6110   -1.8710   23.1230 N   0  0  0  0  0  0  0  0  0  0  0  0
   12.5420   -1.9030   22.2320 C   0  0  0  0  0  0  0  0  0  0  0  0
    5.8000   -4.3630   19.6330 O   0  0  0  0  0  0  0  0  0  0  0  0
   11.9810   -0.8110   23.1060 C   0  0  0  0  0  0  0  0  0  0  0  0
    6.5420   -2.8140   21.0790 N   0  0  0  0  0  0  0  0  0  0  0  0
   12.6990    0.3670   23.2400 C   0  0  0  0  0  0  0  0  0  0  0  0
   12.2440    1.4030   24.0300 C   0  0  0  0  0  0  0  0  0  0  0  0
   11.0520    1.2760   24.7040 C   0  0  0  0  0  0  0  0  0  0  0  0
   10.3230    0.1090   24.5910 C   0  0  0  0  0  0  0  0  0  0  0  0
   10.7750   -0.9550   23.8140 C   0  0  0  0  0  0  0  0  0  0  0  0
    9.9200   -2.1950   23.7010 C   0  0  0  0  0  0  0  0  0  0  0  0
    8.7270   -1.3990   21.7340 C   0  0  0  0  0  0  0  0  0  0  0  0
    7.5480   -0.5740   21.2970 C   0  0  0  0  0  0  0  0  0  0  0  0
    6.2840   -1.3930   21.3390 C   0  0  0  0  0  0  0  0  0  0  0  0
    7.0240   -3.6520   22.1860 C   0  0  0  0  0  0  0  0  0  0  0  0
    7.5860   -2.8990   23.3890 C   0  0  0  0  0  0  0  0  0  0  0  0
    6.4140   -3.3200   19.8390 C   0  0  0  0  0  0  0  0  0  0  0  0
    7.1050   -2.6470   18.6630 C   0  0  0  0  0  0  0  0  0  0  0  0
  1 11  1  0
  1 12  1  0
  1 16  1  0
  2  4  1  0
  3 17  2  0
  4  6  2  0
  4 10  1  0
  5 14  1  0
  5 15  1  0
  5 17  1  0
  6  7  1  0
  7  8  2  0
  8  9  1  0
  9 10  2  0
 10 11  1  0
 12 13  1  0
 13 14  1  0
 15 16  1  0
 17 18  1  0
M  END
