
     RDKit          3D

 15 17  0  0  0  0  0  0  0  0999 V2000
    2.2710  -24.9700    0.9360 C   0  0  0  0  0  0  0  0  0  0  0  0
    2.0410  -23.6070    0.7990 C   0  0  0  0  0  0  0  0  0  0  0  0
    2.9940  -22.8170    0.2810 N   0  0  0  0  0  0  0  0  0  0  0  0
    4.1480  -23.3550   -0.0990 C   0  0  0  0  0  0  0  0  0  0  0  0
    5.2150  -22.4810   -0.6770 N   0  0  0  0  0  0  0  0  0  0  0  0
    6.4350  -22.8910   -1.0670 C   0  0  0  0  0  0  0  0  0  0  0  0
    7.2900  -21.5850   -1.2850 C   0  0  0  0  0  0  0  0  0  0  0  0
    6.1940  -20.4880   -1.5480 C   0  0  1  0  0  0  0  0  0  0  0  0
    6.7250  -19.0750   -1.2850 C   0  0  0  0  0  0  0  0  0  0  0  0
    7.4180  -18.7890   -2.4250 C   0  0  0  0  0  0  0  0  0  0  0  0
    6.6680  -19.6110   -3.6440 O   0  0  0  0  0  0  0  0  0  0  0  0
    5.7780  -20.4220   -3.1010 C   0  0  0  0  0  0  0  0  0  0  0  0
    5.1680  -20.8310   -0.7380 C   0  0  0  0  0  0  0  0  0  0  0  0
    4.3820  -24.7310    0.0340 C   0  0  0  0  0  0  0  0  0  0  0  0
    3.4370  -25.5050    0.5570 N   0  0  0  0  0  0  0  0  0  0  0  0
  1  2  2  0
  1 15  1  0
  2  3  1  0
  3  4  2  0
  4  5  1  0
  4 14  1  0
  5  6  1  0
  5 13  1  0
  6  7  1  0
  8  7  1  6
  8  9  1  0
  8 12  1  0
  8 13  1  0
  9 10  1  0
 10 11  1  0
 11 12  1  0
 14 15  2  0
M  END
