
     RDKit          3D

 16 17  0  0  0  0  0  0  0  0999 V2000
    6.8470   -2.5860   20.9980 N   0  0  0  0  0  0  0  0  0  0  0  0
    7.2600   -2.4580   18.5570 C   0  0  0  0  0  0  0  0  0  0  0  0
    5.7430   -3.9570   19.6070 O   0  0  0  0  0  0  0  0  0  0  0  0
    6.5480   -3.0470   19.7630 C   0  0  0  0  0  0  0  0  0  0  0  0
    8.4610   -2.6160   23.3680 N   0  0  0  0  0  0  0  0  0  0  0  0
    7.7160   -1.4570   21.3240 C   0  0  0  0  0  0  0  0  0  0  0  0
    8.8960   -1.9390   22.1400 C   0  0  0  0  0  0  0  0  0  0  0  0
    9.6260   -3.0770   24.1520 C   0  0  0  0  0  0  0  0  0  0  0  0
    9.3030   -4.1560   25.1420 C   0  0  0  0  0  0  0  0  0  0  0  0
    9.6170   -5.5120   25.0380 C   0  0  0  0  0  0  0  0  0  0  0  0
    9.2980   -6.2450   26.2040 C   0  0  0  0  0  0  0  0  0  0  0  0
    8.5090   -5.4760   27.0790 C   0  0  0  0  0  0  0  0  0  0  0  0
    7.5710   -3.7280   23.0120 C   0  0  0  0  0  0  0  0  0  0  0  0
    6.3820   -3.2470   22.2150 C   0  0  0  0  0  0  0  0  0  0  0  0
    7.5910   -6.0610   28.6030 Br  0  0  0  0  0  0  0  0  0  0  0  0
    8.4330   -3.8320   26.6080 S   0  0  0  0  0  0  0  0  0  0  0  0
  1  4  1  0
  1  6  1  0
  1 14  1  0
  2  4  1  0
  3  4  2  0
  5  7  1  0
  5  8  1  0
  5 13  1  0
  6  7  1  0
  8  9  1  0
  9 10  2  0
  9 16  1  0
 10 11  1  0
 11 12  2  0
 12 15  1  0
 12 16  1  0
 13 14  1  0
M  END
