
     RDKit          3D

 20 21  0  0  0  0  0  0  0  0999 V2000
    5.7460   -5.3670   24.2840 N   0  0  0  0  0  0  0  0  0  0  0  0
    0.6290   -1.4090   26.0930 C   0  0  0  0  0  0  0  0  0  0  0  0
    4.5340   -6.8400   25.8430 O   0  0  0  0  0  0  0  0  0  0  0  0
    1.7090   -2.4360   26.0060 C   0  0  0  0  0  0  0  0  0  0  0  0
    6.6640   -4.7850   21.6930 N   0  0  0  0  0  0  0  0  0  0  0  0
    6.0500   -5.0900   26.7080 O   0  0  0  0  0  0  0  0  0  0  0  0
    3.0160   -2.1170   26.3030 C   0  0  0  0  0  0  0  0  0  0  0  0
    5.8620   -4.1560   19.6680 O   0  0  0  0  0  0  0  0  0  0  0  0
    4.0160   -3.0610   26.2270 C   0  0  0  0  0  0  0  0  0  0  0  0
    3.7200   -4.3630   25.8440 C   0  0  0  0  0  0  0  0  0  0  0  0
    2.3970   -4.7260   25.5310 C   0  0  0  0  0  0  0  0  0  0  0  0
    1.9360   -6.0920   25.1010 C   0  0  0  0  0  0  0  0  0  0  0  0
    1.4260   -3.7340   25.6260 C   0  0  0  0  0  0  0  0  0  0  0  0
    6.5600   -4.1680   24.0430 C   0  0  0  0  0  0  0  0  0  0  0  0
    7.4610   -4.4340   22.8690 C   0  0  0  0  0  0  0  0  0  0  0  0
    5.7970   -5.9400   21.9290 C   0  0  0  0  0  0  0  0  0  0  0  0
    4.9050   -5.6970   23.1200 C   0  0  0  0  0  0  0  0  0  0  0  0
    6.7480   -4.1280   20.5140 C   0  0  0  0  0  0  0  0  0  0  0  0
    8.0390   -3.4010   20.2380 C   0  0  0  0  0  0  0  0  0  0  0  0
    5.0610   -5.5130   25.7660 S   0  0  1  0  0  0  0  0  0  0  0  0
  1 14  1  0
  1 17  1  0
  1 20  1  0
  2  4  1  0
  3 20  2  0
  4  7  2  0
  4 13  1  0
  5 15  1  0
  5 16  1  0
  5 18  1  0
  6 20  2  0
  7  9  1  0
  8 18  2  0
  9 10  2  0
 10 11  1  0
 20 10  1  6
 11 12  1  0
 11 13  2  0
 14 15  1  0
 16 17  1  0
 18 19  1  0
M  END
