
     RDKit          3D

 15 16  0  0  0  0  0  0  0  0999 V2000
    7.6220   -0.6430   -4.8610 C   0  0  0  0  0  0  0  0  0  0  0  0
    6.6620   -1.2860   -5.7730 N   0  0  0  0  0  0  0  0  0  0  0  0
    6.1100   -2.4750   -5.5760 C   0  0  0  0  0  0  0  0  0  0  0  0
    5.2900   -2.7070   -6.6190 C   0  0  0  0  0  0  0  0  0  0  0  0
    5.3740   -1.5890   -7.4600 C   0  0  0  0  0  0  0  0  0  0  0  0
    4.6180   -1.3610   -8.7910 C   0  0  0  0  0  0  0  0  0  0  0  0
    4.6260   -0.2760   -9.2540 O   0  0  0  0  0  0  0  0  0  0  0  0
    3.8780   -2.4530   -9.4550 N   0  0  0  0  0  0  0  0  0  0  0  0
    3.1530   -2.2040  -10.7290 C   0  0  0  0  0  0  0  0  0  0  0  0
    4.0310   -2.6090  -11.8740 C   0  0  2  0  0  0  0  0  0  0  0  0
    3.3020   -2.2560  -13.3200 C   0  0  0  0  0  0  0  0  0  0  0  0
    3.7500   -3.1150  -14.1720 C   0  0  0  0  0  0  0  0  0  0  0  0
    4.2650   -4.3490  -13.3360 C   0  0  0  0  0  0  0  0  0  0  0  0
    4.2210   -3.9000  -11.8540 O   0  0  0  0  0  0  0  0  0  0  0  0
    6.1980   -0.7490   -6.9260 N   0  0  0  0  0  0  0  0  0  0  0  0
  1  2  1  0
  2  3  1  0
  2 15  1  0
  3  4  2  0
  4  5  1  0
  5  6  1  0
  5 15  2  0
  6  7  2  0
  6  8  1  0
  8  9  1  0
 10  9  1  1
 10 11  1  0
 10 14  1  0
 11 12  1  0
 12 13  1  0
 13 14  1  0
M  END
