
     RDKit          3D

 15 14  0  0  0  0  0  0  0  0999 V2000
    1.3090   -8.6400   21.1190 C   0  0  0  0  0  0  0  0  0  0  0  0
    2.7430   -7.2400   22.4710 N   0  0  0  0  0  0  0  0  0  0  0  0
    0.6810   -6.5080   21.9640 O   0  0  0  0  0  0  0  0  0  0  0  0
    1.5450   -7.3790   21.8890 C   0  0  0  0  0  0  0  0  0  0  0  0
    2.1940   -8.4100   25.9760 N   0  0  0  0  0  0  0  0  0  0  0  0
    3.9800   -8.4180   24.6280 O   0  0  0  0  0  0  0  0  0  0  0  0
    3.0620   -6.0880   23.3120 C   0  0  1  0  0  0  0  0  0  0  0  0
    5.3390   -6.1130   22.3030 N   0  0  0  0  0  0  0  0  0  0  0  0
    4.7970   -4.5370   23.8090 O   0  0  0  0  0  0  0  0  0  0  0  0
    2.7570   -6.3780   24.7840 C   0  0  0  0  0  0  0  0  0  0  0  0
    3.0260   -7.8280   25.1260 C   0  0  0  0  0  0  0  0  0  0  0  0
    4.4820   -5.5280   23.1540 C   0  0  0  0  0  0  0  0  0  0  0  0
    6.5730   -5.4660   21.8480 C   0  0  0  0  0  0  0  0  0  0  0  0
    6.5740   -5.1150   20.3650 C   0  0  0  0  0  0  0  0  0  0  0  0
    5.6060   -5.6240   19.6380 C   0  0  0  0  0  0  0  0  0  0  0  0
  1  4  1  0
  2  4  1  0
  2  7  1  0
  3  4  2  0
  5 11  1  0
  6 11  2  0
  7 10  1  1
  7 12  1  0
  8 12  1  0
  8 13  1  0
  9 12  2  0
 10 11  1  0
 13 14  1  0
 14 15  2  0
M  END
