
     RDKit          3D

 14 15  0  0  0  0  0  0  0  0999 V2000
   21.7700   -8.0320    5.7830 Cl  0  0  0  0  0  0  0  0  0  0  0  0
   23.5560   -8.0480    5.7690 C   0  0  0  0  0  0  0  0  0  0  0  0
   24.3010   -6.7640    6.1290 C   0  0  0  0  0  0  0  0  0  0  0  0
   25.6720   -6.7390    6.1380 C   0  0  0  0  0  0  0  0  0  0  0  0
   26.4130   -7.9350    5.8010 C   0  0  0  0  0  0  0  0  0  0  0  0
   25.6900   -9.1940    5.4510 C   0  0  0  0  0  0  0  0  0  0  0  0
   26.4950  -10.4420    5.1120 C   0  0  0  0  0  0  0  0  0  0  0  0
   26.8470  -11.1210    6.2180 N   0  0  0  0  0  0  0  0  0  0  0  0
   27.8310  -10.5280    6.9640 C   0  0  0  0  0  0  0  0  0  0  0  0
   28.3010  -11.3020    8.1830 C   0  0  0  0  0  0  0  0  0  0  0  0
   28.2740  -12.7250    8.0670 O   0  0  0  0  0  0  0  0  0  0  0  0
   27.4200  -13.2760    7.1540 C   0  0  0  0  0  0  0  0  0  0  0  0
   27.2080  -12.4530    5.8960 C   0  0  0  0  0  0  0  0  0  0  0  0
   24.2800   -9.2220    5.4400 C   0  0  0  0  0  0  0  0  0  0  0  0
  1  2  1  0
  2  3  2  0
  2 14  1  0
  3  4  1  0
  4  5  2  0
  5  6  1  0
  6  7  1  0
  6 14  2  0
  7  8  1  0
  8  9  1  0
  8 13  1  0
  9 10  1  0
 10 11  1  0
 11 12  1  0
 12 13  1  0
M  END
