
     RDKit          3D

 16 17  0  0  0  0  0  0  0  0999 V2000
    5.7880   -4.2880   19.6950 O   0  0  0  0  0  0  0  0  0  0  0  0
    6.5690   -3.3780   19.9430 C   0  0  0  0  0  0  0  0  0  0  0  0
    7.2110   -2.6170   18.8150 C   0  0  0  0  0  0  0  0  0  0  0  0
    6.8920   -3.0270   21.2070 N   0  0  0  0  0  0  0  0  0  0  0  0
    6.3400   -3.7290   22.3750 C   0  0  0  0  0  0  0  0  0  0  0  0
    7.4510   -4.3300   23.2020 C   0  0  0  0  0  0  0  0  0  0  0  0
    8.6390   -3.5250   23.1700 O   0  0  0  0  0  0  0  0  0  0  0  0
    8.3560   -2.1480   22.9670 C   0  0  1  0  0  0  0  0  0  0  0  0
    9.6350   -1.3820   23.2070 C   0  0  0  0  0  0  0  0  0  0  0  0
    9.7640   -0.6170   24.3530 C   0  0  0  0  0  0  0  0  0  0  0  0
   10.9140    0.1020   24.6050 C   0  0  0  0  0  0  0  0  0  0  0  0
   11.9230    0.0370   23.6960 C   0  0  0  0  0  0  0  0  0  0  0  0
   11.8510   -0.7020   22.5500 C   0  0  0  0  0  0  0  0  0  0  0  0
   10.6940   -1.4200   22.3120 C   0  0  0  0  0  0  0  0  0  0  0  0
    7.7640   -1.9170   21.5820 C   0  0  0  0  0  0  0  0  0  0  0  0
   13.0540    0.7460   23.9520 F   0  0  0  0  0  0  0  0  0  0  0  0
  1  2  2  0
  2  3  1  0
  2  4  1  0
  4  5  1  0
  4 15  1  0
  5  6  1  0
  6  7  1  0
  7  8  1  0
  8  9  1  6
  8 15  1  0
  9 10  2  0
  9 14  1  0
 10 11  1  0
 11 12  2  0
 12 13  1  0
 12 16  1  0
 13 14  2  0
M  END
