
     RDKit          3D

 14 15  0  0  0  0  0  0  0  0999 V2000
   14.4940  -25.9390    4.4240 N   0  0  0  0  0  0  0  0  0  0  0  0
   15.9130  -25.5950    7.1510 C   0  0  0  0  0  0  0  0  0  0  0  0
   15.1190  -27.8750    7.9430 O   0  0  0  0  0  0  0  0  0  0  0  0
   16.0640  -27.5800    5.5640 C   0  0  0  0  0  0  0  0  0  0  0  0
   13.7540  -28.1130    4.6120 N   0  0  0  0  0  0  0  0  0  0  0  0
   17.5160  -27.4530    7.6430 O   0  0  0  0  0  0  0  0  0  0  0  0
   14.7900  -27.1930    4.8700 C   0  0  0  0  0  0  0  0  0  0  0  0
   13.2040  -26.0440    3.8680 C   0  0  0  0  0  0  0  0  0  0  0  0
   12.3720  -25.0440    3.3170 C   0  0  0  0  0  0  0  0  0  0  0  0
   11.1090  -25.4200    2.9140 C   0  0  0  0  0  0  0  0  0  0  0  0
   10.6570  -26.7590    3.0280 C   0  0  0  0  0  0  0  0  0  0  0  0
   11.4510  -27.7510    3.5530 C   0  0  0  0  0  0  0  0  0  0  0  0
   12.7370  -27.3820    3.9800 C   0  0  0  0  0  0  0  0  0  0  0  0
   16.1670  -27.2310    7.2470 S   0  0  1  0  0  0  0  0  0  0  0  0
  1  7  2  0
  1  8  1  0
 14  2  1  6
  3 14  2  0
  4  7  1  0
  4 14  1  0
  5  7  1  0
  5 13  1  0
  6 14  2  0
  8  9  2  0
  8 13  1  0
  9 10  1  0
 10 11  2  0
 11 12  1  0
 12 13  2  0
M  END
