
     RDKit          3D

 20 20  0  0  0  0  0  0  0  0999 V2000
    7.6470    4.9230   22.5630 C   0  0  0  0  0  0  0  0  0  0  0  0
    7.9040    2.5380   22.4150 N   0  0  0  0  0  0  0  0  0  0  0  0
    6.2270    3.3360   23.6430 O   0  0  0  0  0  0  0  0  0  0  0  0
    7.2040    3.5440   22.9320 C   0  0  0  0  0  0  0  0  0  0  0  0
    9.0130   -0.8970   22.6070 N   0  0  0  0  0  0  0  0  0  0  0  0
    5.6740    0.7690   16.8820 O   0  0  0  0  0  0  0  0  0  0  0  0
    7.7770    1.1690   22.8930 C   0  0  1  0  0  0  0  0  0  0  0  0
    9.8170    0.9750   21.6560 O   0  0  0  0  0  0  0  0  0  0  0  0
    6.4470    0.5230   22.4720 C   0  0  0  0  0  0  0  0  0  0  0  0
    6.2110    0.5770   20.9840 C   0  0  0  0  0  0  0  0  0  0  0  0
    5.3260    1.4920   20.4300 C   0  0  0  0  0  0  0  0  0  0  0  0
    5.1270    1.5650   19.0620 C   0  0  0  0  0  0  0  0  0  0  0  0
    5.8250    0.7090   18.2260 C   0  0  0  0  0  0  0  0  0  0  0  0
    6.7140   -0.2030   18.7560 C   0  0  0  0  0  0  0  0  0  0  0  0
    6.8970   -0.2650   20.1240 C   0  0  0  0  0  0  0  0  0  0  0  0
    8.9700    0.4030   22.3370 C   0  0  0  0  0  0  0  0  0  0  0  0
    9.9110   -1.7790   21.8910 C   0  0  0  0  0  0  0  0  0  0  0  0
   11.2900   -1.5690   22.3350 C   0  0  0  0  0  0  0  0  0  0  0  0
   12.4300   -1.6070   22.7390 C   0  0  0  0  0  0  0  0  0  0  0  0
   14.1250   -1.9140   23.6280 Br  0  0  0  0  0  0  0  0  0  0  0  0
  1  4  1  0
  2  4  1  0
  2  7  1  0
  3  4  2  0
  5 16  1  0
  5 17  1  0
  6 13  1  0
  7  9  1  6
  7 16  1  0
  8 16  2  0
  9 10  1  0
 10 11  2  0
 10 15  1  0
 11 12  1  0
 12 13  2  0
 13 14  1  0
 14 15  2  0
 17 18  1  0
 18 19  3  0
 19 20  1  0
M  END
