
     RDKit          3D

 15 16  0  0  0  0  0  0  0  0999 V2000
   21.7060   21.4140    4.5700 O   0  0  0  0  0  0  0  0  0  0  0  0
   21.8270   20.2260    3.9070 C   0  0  0  0  0  0  0  0  0  0  0  0
   20.6090   19.3760    4.1560 C   0  0  1  0  0  0  0  0  0  0  0  0
   21.0200   17.8840    4.1470 C   0  0  0  0  0  0  0  0  0  0  0  0
   21.3650   17.3480    5.4320 N   0  0  0  0  0  0  0  0  0  0  0  0
   22.2370   16.3960    5.4060 C   0  0  0  0  0  0  0  0  0  0  0  0
   21.7450   15.1570    6.1470 C   0  0  0  0  0  0  0  0  0  0  0  0
   22.3690   13.9580    5.8610 C   0  0  0  0  0  0  0  0  0  0  0  0
   21.9750   12.7990    6.4930 C   0  0  0  0  0  0  0  0  0  0  0  0
   20.9560   12.8240    7.4270 C   0  0  0  0  0  0  0  0  0  0  0  0
   20.3390   14.0030    7.7230 C   0  0  0  0  0  0  0  0  0  0  0  0
   20.7330   15.1760    7.0790 C   0  0  0  0  0  0  0  0  0  0  0  0
   21.5920   18.2920    6.4440 C   0  0  0  0  0  0  0  0  0  0  0  0
   20.4280   19.2920    6.5710 C   0  0  0  0  0  0  0  0  0  0  0  0
   19.9480   19.8050    5.3340 O   0  0  0  0  0  0  0  0  0  0  0  0
  1  2  1  0
  3  2  1  1
  3  4  1  0
  3 15  1  0
  4  5  1  0
  5  6  1  0
  5 13  1  0
  6  7  1  0
  7  8  2  0
  7 12  1  0
  8  9  1  0
  9 10  2  0
 10 11  1  0
 11 12  2  0
 13 14  1  0
 14 15  1  0
M  END
