
     RDKit          3D

  7  7  0  0  0  0  0  0  0  0999 V2000
    3.7110    2.1190   19.5450 N   0  0  0  0  0  0  0  0  0  0  0  0
    4.6790    1.2820   19.1410 C   0  0  0  0  0  0  0  0  0  0  0  0
    5.1220    0.2030   19.9490 C   0  0  0  0  0  0  0  0  0  0  0  0
    6.0490   -0.6720   19.5320 N   0  0  0  0  0  0  0  0  0  0  0  0
    6.5640   -0.4520   18.2750 C   0  0  0  0  0  0  0  0  0  0  0  0
    6.2290    0.5470   17.4370 N   0  0  0  0  0  0  0  0  0  0  0  0
    5.2900    1.4030   17.8640 C   0  0  0  0  0  0  0  0  0  0  0  0
  1  2  1  0
  2  3  2  0
  2  7  1  0
  3  4  1  0
  4  5  2  0
  5  6  1  0
  6  7  2  0
M  END
