
     RDKit          3D

 19 20  0  0  0  0  0  0  0  0999 V2000
    6.9420   -2.4130   25.9120 N   0  0  0  0  0  0  0  0  0  0  0  0
    5.9700   -0.2450   26.5220 C   0  0  0  0  0  0  0  0  0  0  0  0
    5.3580   -0.2180   25.3130 O   0  0  0  0  0  0  0  0  0  0  0  0
    5.8390    0.7750   27.4660 C   0  0  0  0  0  0  0  0  0  0  0  0
    6.8380   -4.0770   21.0870 N   0  0  0  0  0  0  0  0  0  0  0  0
    4.8570   -3.2390   25.4980 O   0  0  0  0  0  0  0  0  0  0  0  0
    6.4930    0.6770   28.6830 C   0  0  0  0  0  0  0  0  0  0  0  0
    5.5990   -4.6030   19.2780 O   0  0  0  0  0  0  0  0  0  0  0  0
    7.2770   -0.4200   28.9710 C   0  0  0  0  0  0  0  0  0  0  0  0
    7.4180   -1.4390   28.0420 C   0  0  0  0  0  0  0  0  0  0  0  0
    6.7540   -1.3620   26.8330 C   0  0  0  0  0  0  0  0  0  0  0  0
    6.0340   -3.1050   25.1830 C   0  0  0  0  0  0  0  0  0  0  0  0
    6.6200   -3.7150   23.9230 C   0  0  1  0  0  0  0  0  0  0  0  0
    5.6310   -4.5920   23.1520 C   0  0  0  0  0  0  0  0  0  0  0  0
    6.2970   -5.1590   21.9210 C   0  0  0  0  0  0  0  0  0  0  0  0
    7.7860   -3.2040   21.7830 C   0  0  0  0  0  0  0  0  0  0  0  0
    7.1360   -2.6090   23.0010 C   0  0  0  0  0  0  0  0  0  0  0  0
    6.4620   -3.9090   19.8030 C   0  0  0  0  0  0  0  0  0  0  0  0
    7.1600   -2.8380   19.0060 C   0  0  0  0  0  0  0  0  0  0  0  0
  1 11  1  0
  1 12  1  0
  2  3  1  0
  2  4  2  0
  2 11  1  0
  4  7  1  0
  5 15  1  0
  5 16  1  0
  5 18  1  0
  6 12  2  0
  7  9  2  0
  8 18  2  0
  9 10  1  0
 10 11  2  0
 13 12  1  1
 13 14  1  0
 13 17  1  0
 14 15  1  0
 16 17  1  0
 18 19  1  0
M  END
