
     RDKit          3D

  7  7  0  0  0  0  0  0  0  0999 V2000
   13.0090  -27.3300    3.9320 N   0  0  0  0  0  0  0  0  0  0  0  0
   11.8960  -26.6310    3.5300 C   0  0  0  0  0  0  0  0  0  0  0  0
   10.7890  -27.3420    3.2160 O   0  0  0  0  0  0  0  0  0  0  0  0
   11.8380  -25.2240    3.3940 C   0  0  0  0  0  0  0  0  0  0  0  0
   12.9980  -24.5160    3.6900 C   0  0  0  0  0  0  0  0  0  0  0  0
   14.1570  -25.1990    4.0970 C   0  0  0  0  0  0  0  0  0  0  0  0
   14.1140  -26.5930    4.2030 C   0  0  0  0  0  0  0  0  0  0  0  0
  1  2  2  0
  1  7  1  0
  2  3  1  0
  2  4  1  0
  4  5  2  0
  5  6  1  0
  6  7  2  0
M  END
