
     RDKit          3D

 21 23  0  0  0  0  0  0  0  0999 V2000
    9.0010   -3.2500   17.5190 S   0  0  0  0  0  0  0  0  0  0  0  0
    6.8350   -2.1630   20.8120 N   0  0  0  0  0  0  0  0  0  0  0  0
    8.3020   -3.0200   19.1550 C   0  0  0  0  0  0  0  0  0  0  0  0
    5.9410   -3.3830   19.1190 O   0  0  0  0  0  0  0  0  0  0  0  0
    6.9090   -2.8730   19.6740 C   0  0  0  0  0  0  0  0  0  0  0  0
    8.7520   -2.0810   22.9630 N   0  0  0  0  0  0  0  0  0  0  0  0
    7.7860   -1.0540   20.9410 C   0  0  0  0  0  0  0  0  0  0  0  0
    9.0520   -1.4400   21.6810 C   0  0  0  0  0  0  0  0  0  0  0  0
    9.9860   -2.4160   23.6840 C   0  0  0  0  0  0  0  0  0  0  0  0
   11.0670   -1.3820   23.4820 C   0  0  0  0  0  0  0  0  0  0  0  0
   12.0880   -1.5930   22.5910 C   0  0  0  0  0  0  0  0  0  0  0  0
   13.0880   -0.6310   22.3700 C   0  0  0  0  0  0  0  0  0  0  0  0
   13.0470    0.5540   23.0260 C   0  0  0  0  0  0  0  0  0  0  0  0
   12.0030    0.8380   23.9380 C   0  0  0  0  0  0  0  0  0  0  0  0
   11.9400    2.0720   24.6210 C   0  0  0  0  0  0  0  0  0  0  0  0
   10.9270    2.3380   25.4850 C   0  0  0  0  0  0  0  0  0  0  0  0
    9.9380    1.3790   25.7390 C   0  0  0  0  0  0  0  0  0  0  0  0
    9.9660    0.1780   25.0970 C   0  0  0  0  0  0  0  0  0  0  0  0
   10.9950   -0.1390   24.1720 C   0  0  0  0  0  0  0  0  0  0  0  0
    7.9360   -3.2710   22.7290 C   0  0  0  0  0  0  0  0  0  0  0  0
    6.6290   -2.9060   22.0580 C   0  0  0  0  0  0  0  0  0  0  0  0
  1  3  1  0
  2  5  1  0
  2  7  1  0
  2 21  1  0
  3  5  1  0
  4  5  2  0
  6  8  1  0
  6  9  1  0
  6 20  1  0
  7  8  1  0
  9 10  1  0
 10 11  2  0
 10 19  1  0
 11 12  1  0
 12 13  2  0
 13 14  1  0
 14 15  1  0
 14 19  2  0
 15 16  2  0
 16 17  1  0
 17 18  2  0
 18 19  1  0
 20 21  1  0
M  END
