
     RDKit          3D

 19 21  0  0  0  0  0  0  0  0999 V2000
   13.7290   -1.2710   23.6040 C   0  0  0  0  0  0  0  0  0  0  0  0
   12.3210   -0.8940   23.7180 N   0  0  0  0  0  0  0  0  0  0  0  0
    8.9960    1.3830   21.1430 O   0  0  0  0  0  0  0  0  0  0  0  0
   11.4670   -1.8380   22.9920 C   0  0  0  0  0  0  0  0  0  0  0  0
    9.8260   -0.0960   22.6220 N   0  0  0  0  0  0  0  0  0  0  0  0
   10.0140   -1.4540   23.1290 C   0  0  0  0  0  0  0  0  0  0  0  0
    6.6410    0.3430   17.8150 N   0  0  0  0  0  0  0  0  0  0  0  0
   10.6540    0.8680   23.3430 C   0  0  0  0  0  0  0  0  0  0  0  0
    4.6510    1.5300   18.5060 N   0  0  0  0  0  0  0  0  0  0  0  0
   12.1050    0.4690   23.2230 C   0  0  0  0  0  0  0  0  0  0  0  0
    9.0660    0.2300   21.5610 C   0  0  0  0  0  0  0  0  0  0  0  0
    8.3080   -0.8880   20.8630 C   0  0  0  0  0  0  0  0  0  0  0  0
    7.4330   -0.3020   19.8060 C   0  0  0  0  0  0  0  0  0  0  0  0
    7.6450   -0.3300   18.4600 C   0  0  0  0  0  0  0  0  0  0  0  0
    5.7600    0.8140   18.7420 C   0  0  0  0  0  0  0  0  0  0  0  0
    3.9600    1.8790   19.5990 C   0  0  0  0  0  0  0  0  0  0  0  0
    4.3240    1.5630   20.9050 C   0  0  0  0  0  0  0  0  0  0  0  0
    5.4760    0.8390   21.1280 C   0  0  0  0  0  0  0  0  0  0  0  0
    6.2270    0.4400   20.0170 C   0  0  0  0  0  0  0  0  0  0  0  0
  1  2  1  0
  2  4  1  0
  2 10  1  0
  3 11  2  0
  4  6  1  0
  5  6  1  0
  5  8  1  0
  5 11  1  0
  7 14  1  0
  7 15  1  0
  8 10  1  0
  9 15  2  0
  9 16  1  0
 11 12  1  0
 12 13  1  0
 13 14  2  0
 13 19  1  0
 15 19  1  0
 16 17  2  0
 17 18  1  0
 18 19  2  0
M  END
