
     RDKit          3D

 16 17  0  0  0  0  0  0  0  0999 V2000
   23.0570  -17.4280   24.3160 C   0  0  0  0  0  0  0  0  0  0  0  0
   23.1680  -18.6610   24.0280 N   0  0  0  0  0  0  0  0  0  0  0  0
   21.9690  -19.3780   24.1750 C   0  0  0  0  0  0  0  0  0  0  0  0
   22.0860  -20.8710   23.8350 C   0  0  0  0  0  0  0  0  0  0  0  0
   22.7540  -21.1280   22.6050 N   0  0  0  0  0  0  0  0  0  0  0  0
   23.9770  -20.3910   22.5380 C   0  0  0  0  0  0  0  0  0  0  0  0
   23.7850  -18.9030   22.7950 C   0  0  0  0  0  0  0  0  0  0  0  0
   22.2240  -22.0380   21.5910 C   0  0  0  0  0  0  0  0  0  0  0  0
   21.1920  -22.5860   21.7840 O   0  0  0  0  0  0  0  0  0  0  0  0
   22.9110  -22.2680   20.3380 N   0  0  0  0  0  0  0  0  0  0  0  0
   22.3790  -23.1640   19.3270 C   0  0  0  0  0  0  0  0  0  0  0  0
   22.0240  -24.4660   19.6400 C   0  0  0  0  0  0  0  0  0  0  0  0
   21.5350  -25.3070   18.6490 C   0  0  0  0  0  0  0  0  0  0  0  0
   21.4030  -24.8510   17.3450 C   0  0  0  0  0  0  0  0  0  0  0  0
   21.7640  -23.5450   17.0280 C   0  0  0  0  0  0  0  0  0  0  0  0
   22.2550  -22.7050   18.0200 C   0  0  0  0  0  0  0  0  0  0  0  0
  1  2  1  0
  2  3  1  0
  2  7  1  0
  3  4  1  0
  4  5  1  0
  5  6  1  0
  5  8  1  0
  6  7  1  0
  8  9  2  0
  8 10  1  0
 10 11  1  0
 11 12  2  0
 11 16  1  0
 12 13  1  0
 13 14  2  0
 14 15  1  0
 15 16  2  0
M  END
