
     RDKit          3D

 15 15  0  0  0  0  0  0  0  0999 V2000
   16.1570    2.2610  -14.7030 C   0  0  0  0  0  0  0  0  0  0  0  0
   16.9650    3.1840  -14.0420 O   0  0  0  0  0  0  0  0  0  0  0  0
   16.6990    3.2130  -12.6810 C   0  0  0  0  0  0  0  0  0  0  0  0
   15.7970    3.8760  -12.2910 O   0  0  0  0  0  0  0  0  0  0  0  0
   17.5580    2.3710  -11.7510 C   0  0  0  0  0  0  0  0  0  0  0  0
   18.6550    1.6940  -12.2470 C   0  0  0  0  0  0  0  0  0  0  0  0
   19.4320    0.9220  -11.4040 C   0  0  0  0  0  0  0  0  0  0  0  0
   19.1250    0.8200  -10.0630 C   0  0  0  0  0  0  0  0  0  0  0  0
   18.0310    1.4980   -9.5550 C   0  0  0  0  0  0  0  0  0  0  0  0
   17.7290    1.3680   -8.1370 N   0  0  0  0  0  0  0  0  0  0  0  0
   17.3960    2.7260   -7.1580 S   0  0  1  0  0  0  0  0  0  0  0  0
   17.1710    2.3270   -5.7560 O   0  0  0  0  0  0  0  0  0  0  0  0
   18.5620    3.6000   -7.0190 O   0  0  0  0  0  0  0  0  0  0  0  0
   15.9830    3.6070   -7.7510 C   0  0  0  0  0  0  0  0  0  0  0  0
   17.2540    2.2720  -10.4090 C   0  0  0  0  0  0  0  0  0  0  0  0
  1  2  1  0
  2  3  1  0
  3  4  2  0
  3  5  1  0
  5  6  2  0
  5 15  1  0
  6  7  1  0
  7  8  2  0
  8  9  1  0
  9 10  1  0
  9 15  2  0
 10 11  1  0
 11 12  2  0
 11 13  2  0
 11 14  1  6
M  END
