
     RDKit          3D

 20 21  0  0  0  0  0  0  0  0999 V2000
    8.3470   -3.4190   18.6680 S   0  0  0  0  0  0  0  0  0  0  0  0
    6.0090   -5.2330   24.2710 N   0  0  0  0  0  0  0  0  0  0  0  0
    0.9540   -1.0160   25.7850 C   0  0  0  0  0  0  0  0  0  0  0  0
    6.4070   -4.7250   26.6400 O   0  0  0  0  0  0  0  0  0  0  0  0
    2.0470   -2.0460   25.7860 C   0  0  0  0  0  0  0  0  0  0  0  0
    6.8360   -5.1170   21.5910 N   0  0  0  0  0  0  0  0  0  0  0  0
    4.7320   -6.4310   26.0070 O   0  0  0  0  0  0  0  0  0  0  0  0
    3.2910   -1.7610   26.3260 C   0  0  0  0  0  0  0  0  0  0  0  0
    5.5680   -5.0860   19.7230 O   0  0  0  0  0  0  0  0  0  0  0  0
    4.3070   -2.6990   26.3320 C   0  0  0  0  0  0  0  0  0  0  0  0
    4.0790   -3.9480   25.7750 C   0  0  0  0  0  0  0  0  0  0  0  0
    2.8420   -4.2590   25.2350 C   0  0  0  0  0  0  0  0  0  0  0  0
    1.8420   -3.3040   25.2430 C   0  0  0  0  0  0  0  0  0  0  0  0
    5.2290   -5.9120   23.2260 C   0  0  0  0  0  0  0  0  0  0  0  0
    6.1690   -6.3070   22.1180 C   0  0  0  0  0  0  0  0  0  0  0  0
    7.5830   -4.3920   22.6240 C   0  0  0  0  0  0  0  0  0  0  0  0
    6.6640   -4.0170   23.7590 C   0  0  0  0  0  0  0  0  0  0  0  0
    6.4410   -4.5790   20.4170 C   0  0  0  0  0  0  0  0  0  0  0  0
    7.0950   -3.2960   19.9790 C   0  0  0  0  0  0  0  0  0  0  0  0
    5.3590   -5.1680   25.7750 S   0  0  2  0  0  0  0  0  0  0  0  0
  1 19  1  0
  2 14  1  0
  2 17  1  0
  2 20  1  0
  3  5  1  0
  4 20  2  0
  5  8  2  0
  5 13  1  0
  6 15  1  0
  6 16  1  0
  6 18  1  0
  7 20  2  0
  8 10  1  0
  9 18  2  0
 10 11  2  0
 11 12  1  0
 20 11  1  6
 12 13  2  0
 14 15  1  0
 16 17  1  0
 18 19  1  0
M  END
