
     RDKit          3D

 18 19  0  0  0  0  0  0  0  0999 V2000
    2.8920    1.4710   24.2020 O   0  0  0  0  0  0  0  0  0  0  0  0
    2.9270    2.3110   23.3520 C   0  0  0  0  0  0  0  0  0  0  0  0
    4.0700    2.4460   22.4650 N   0  0  0  0  0  0  0  0  0  0  0  0
    5.2050    1.5540   22.5490 C   0  0  0  0  0  0  0  0  0  0  0  0
    4.8810    0.3160   21.7180 C   0  0  0  0  0  0  0  0  0  0  0  0
    5.3070    0.4260   20.2540 C   0  0  0  0  0  0  0  0  0  0  0  0
    6.3790   -0.3430   19.7980 C   0  0  0  0  0  0  0  0  0  0  0  0
    6.7610   -0.2350   18.4680 C   0  0  0  0  0  0  0  0  0  0  0  0
    6.1220    0.5700   17.6490 N   0  0  0  0  0  0  0  0  0  0  0  0
    5.0860    1.3070   18.0550 C   0  0  0  0  0  0  0  0  0  0  0  0
    4.6350    1.2750   19.3710 C   0  0  0  0  0  0  0  0  0  0  0  0
    1.8460    3.2530   23.1370 N   0  0  0  0  0  0  0  0  0  0  0  0
    0.6480    3.2940   23.9490 C   0  0  1  0  0  0  0  0  0  0  0  0
    0.5370    4.7360   24.4510 C   0  0  0  0  0  0  0  0  0  0  0  0
   -0.7860    4.9880   25.1580 C   0  0  0  0  0  0  0  0  0  0  0  0
   -1.9540    4.6680   24.2350 C   0  0  0  0  0  0  0  0  0  0  0  0
   -1.8960    3.2340   23.7250 C   0  0  0  0  0  0  0  0  0  0  0  0
   -0.5430    2.8790   23.0980 C   0  0  0  0  0  0  0  0  0  0  0  0
  1  2  2  0
  2  3  1  0
  2 12  1  0
  3  4  1  0
  4  5  1  0
  5  6  1  0
  6  7  2  0
  6 11  1  0
  7  8  1  0
  8  9  2  0
  9 10  1  0
 10 11  2  0
 13 12  1  6
 13 14  1  0
 13 18  1  0
 14 15  1  0
 15 16  1  0
 16 17  1  0
 17 18  1  0
M  END
