
     RDKit          3D

 20 21  0  0  0  0  0  0  0  0999 V2000
    6.9980   -3.4120   21.1340 N   0  0  0  0  0  0  0  0  0  0  0  0
    6.9030   -2.8490   18.7560 C   0  0  0  0  0  0  0  0  0  0  0  0
    5.6560   -4.5830   19.7380 O   0  0  0  0  0  0  0  0  0  0  0  0
    6.4630   -3.6830   19.9210 C   0  0  0  0  0  0  0  0  0  0  0  0
    7.0810   -2.3800   23.7160 N   0  0  0  0  0  0  0  0  0  0  0  0
    8.1140   -0.7740   25.2920 O   0  0  0  0  0  0  0  0  0  0  0  0
    7.9060   -2.3060   21.4690 C   0  0  0  0  0  0  0  0  0  0  0  0
   10.5100   -2.6170   23.9870 N   0  0  0  0  0  0  0  0  0  0  0  0
    5.8270   -1.6220   25.7130 O   0  0  0  0  0  0  0  0  0  0  0  0
    7.3450   -1.4710   22.5930 C   0  0  0  0  0  0  0  0  0  0  0  0
    6.0750   -3.3970   23.3790 C   0  0  0  0  0  0  0  0  0  0  0  0
    6.6680   -4.2500   22.2900 C   0  0  0  0  0  0  0  0  0  0  0  0
    7.8420   -3.2080   26.1630 C   0  0  0  0  0  0  0  0  0  0  0  0
    7.1040   -3.8020   27.1850 C   0  0  0  0  0  0  0  0  0  0  0  0
    7.6210   -4.8800   27.8780 C   0  0  0  0  0  0  0  0  0  0  0  0
    8.8570   -5.3920   27.5570 C   0  0  0  0  0  0  0  0  0  0  0  0
    9.6000   -4.8370   26.5330 C   0  0  0  0  0  0  0  0  0  0  0  0
    9.0930   -3.7540   25.8240 C   0  0  0  0  0  0  0  0  0  0  0  0
    9.8820   -3.1760   24.7670 C   0  0  0  0  0  0  0  0  0  0  0  0
    7.1650   -1.8420   25.2620 S   0  0  1  0  0  0  0  0  0  0  0  0
  1  4  1  0
  1  7  1  0
  1 12  1  0
  2  4  1  0
  3  4  2  0
  5 10  1  0
  5 11  1  0
  5 20  1  0
  6 20  2  0
  7 10  1  0
  8 19  3  0
  9 20  2  0
 11 12  1  0
 13 14  2  0
 13 18  1  0
 20 13  1  1
 14 15  1  0
 15 16  2  0
 16 17  1  0
 17 18  2  0
 18 19  1  0
M  END
