
     RDKit          3D

 15 16  0  0  0  0  0  0  0  0999 V2000
    7.4250  -23.3390   -1.2700 C   0  0  0  0  0  0  0  0  0  0  0  0
    7.1040  -21.8650   -0.9570 C   0  0  1  0  0  0  0  0  0  0  0  0
    7.6890  -20.9620   -2.0410 C   0  0  0  0  0  0  0  0  0  0  0  0
    7.1780  -19.6140   -2.1190 N   0  0  0  0  0  0  0  0  0  0  0  0
    7.6780  -18.6420   -3.0710 C   0  0  0  0  0  0  0  0  0  0  0  0
    7.2200  -17.5470   -3.0980 O   0  0  0  0  0  0  0  0  0  0  0  0
    8.7910  -19.0010   -4.0580 C   0  0  0  0  0  0  0  0  0  0  0  0
    9.2980  -17.7800   -4.6560 N   0  0  0  0  0  0  0  0  0  0  0  0
   10.0060  -16.8600   -4.0260 C   0  0  0  0  0  0  0  0  0  0  0  0
   10.2880  -15.8540   -4.9280 C   0  0  0  0  0  0  0  0  0  0  0  0
    9.7040  -16.2230   -6.1290 C   0  0  0  0  0  0  0  0  0  0  0  0
    9.1090  -17.3890   -5.9500 N   0  0  0  0  0  0  0  0  0  0  0  0
    6.1340  -19.3060   -1.1740 C   0  0  0  0  0  0  0  0  0  0  0  0
    5.1800  -20.4440   -0.8140 C   0  0  0  0  0  0  0  0  0  0  0  0
    5.7080  -21.7540   -0.8280 O   0  0  0  0  0  0  0  0  0  0  0  0
  2  1  1  6
  2  3  1  0
  2 15  1  0
  3  4  1  0
  4  5  1  0
  4 13  1  0
  5  6  2  0
  5  7  1  0
  7  8  1  0
  8  9  1  0
  8 12  1  0
  9 10  2  0
 10 11  1  0
 11 12  2  0
 13 14  1  0
 14 15  1  0
M  END
