
     RDKit          3D

 17 18  0  0  0  0  0  0  0  0999 V2000
    8.4470   -3.4930   18.6890 S   0  0  0  0  0  0  0  0  0  0  0  0
    7.0880   -4.8000   21.6870 N   0  0  0  0  0  0  0  0  0  0  0  0
    7.5250   -2.4790   22.4840 C   0  0  0  0  0  0  0  0  0  0  0  0
    5.7000   -5.1690   19.9490 O   0  0  0  0  0  0  0  0  0  0  0  0
    7.4070   -3.9530   22.8510 C   0  0  1  0  0  0  0  0  0  0  0  0
    6.5300   -4.4490   20.5110 C   0  0  0  0  0  0  0  0  0  0  0  0
    6.9220   -3.2470   19.6580 C   0  0  0  0  0  0  0  0  0  0  0  0
    6.4280   -4.1550   24.0000 C   0  0  0  0  0  0  0  0  0  0  0  0
    5.0880   -4.3220   23.7380 C   0  0  0  0  0  0  0  0  0  0  0  0
    4.1430   -4.4950   24.7670 C   0  0  0  0  0  0  0  0  0  0  0  0
    4.5430   -4.5080   26.0610 C   0  0  0  0  0  0  0  0  0  0  0  0
    5.9050   -4.3420   26.4070 C   0  0  0  0  0  0  0  0  0  0  0  0
    6.3150   -4.3560   27.7610 C   0  0  0  0  0  0  0  0  0  0  0  0
    7.6210   -4.2020   28.0940 C   0  0  0  0  0  0  0  0  0  0  0  0
    8.5880   -4.0170   27.0960 C   0  0  0  0  0  0  0  0  0  0  0  0
    8.2280   -3.9970   25.7810 C   0  0  0  0  0  0  0  0  0  0  0  0
    6.8740   -4.1610   25.3750 C   0  0  0  0  0  0  0  0  0  0  0  0
  1  7  1  0
  2  5  1  0
  2  6  1  0
  5  3  1  6
  4  6  2  0
  5  8  1  0
  6  7  1  0
  8  9  2  0
  8 17  1  0
  9 10  1  0
 10 11  2  0
 11 12  1  0
 12 13  1  0
 12 17  2  0
 13 14  2  0
 14 15  1  0
 15 16  2  0
 16 17  1  0
M  END
