
     RDKit          3D

 14 14  0  0  0  0  0  0  0  0999 V2000
   13.6250   -2.3810   24.3190 C   0  0  0  0  0  0  0  0  0  0  0  0
   13.1350   -1.0850   24.5660 O   0  0  0  0  0  0  0  0  0  0  0  0
   13.2530   -0.1540   23.5250 C   0  0  0  0  0  0  0  0  0  0  0  0
   13.9500   -0.3700   22.5960 O   0  0  0  0  0  0  0  0  0  0  0  0
   12.4930    1.1680   23.6040 C   0  0  0  0  0  0  0  0  0  0  0  0
   11.2750    1.2380   24.2650 C   0  0  0  0  0  0  0  0  0  0  0  0
   10.5980    2.4480   24.3410 C   0  0  0  0  0  0  0  0  0  0  0  0
   11.1470    3.5810   23.7500 C   0  0  0  0  0  0  0  0  0  0  0  0
   12.3650    3.5080   23.0890 C   0  0  0  0  0  0  0  0  0  0  0  0
   13.0360    2.3020   23.0200 C   0  0  0  0  0  0  0  0  0  0  0  0
   10.2820    5.1680   23.8420 S   0  0  2  0  0  0  0  0  0  0  0  0
   11.1550    6.2720   23.4300 O   0  0  0  0  0  0  0  0  0  0  0  0
    9.9940    5.5050   25.2370 O   0  0  0  0  0  0  0  0  0  0  0  0
    8.8600    5.1380   22.8970 N   0  0  0  0  0  0  0  0  0  0  0  0
  1  2  1  0
  2  3  1  0
  3  4  2  0
  3  5  1  0
  5  6  2  0
  5 10  1  0
  6  7  1  0
  7  8  2  0
  8  9  1  0
  8 11  1  0
  9 10  2  0
 11 12  2  0
 11 13  2  0
 11 14  1  6
M  END
