
     RDKit          3D

 17 18  0  0  0  0  0  0  0  0999 V2000
    5.6080   -3.6610   23.7260 N   0  0  0  0  0  0  0  0  0  0  0  0
    1.3720   -2.3450   28.2890 C   0  0  0  0  0  0  0  0  0  0  0  0
    2.7920   -2.2190   28.2920 O   0  0  0  0  0  0  0  0  0  0  0  0
    3.4750   -2.5860   27.1620 C   0  0  0  0  0  0  0  0  0  0  0  0
    6.7550   -4.2710   21.2560 N   0  0  0  0  0  0  0  0  0  0  0  0
    5.6500   -4.9710   19.4200 O   0  0  0  0  0  0  0  0  0  0  0  0
    2.9700   -3.5430   26.2920 C   0  0  0  0  0  0  0  0  0  0  0  0
    3.6820   -3.8910   25.1610 C   0  0  0  0  0  0  0  0  0  0  0  0
    4.9170   -3.3070   24.8740 C   0  0  0  0  0  0  0  0  0  0  0  0
    5.4060   -2.3410   25.7570 C   0  0  0  0  0  0  0  0  0  0  0  0
    4.6970   -1.9870   26.8910 C   0  0  0  0  0  0  0  0  0  0  0  0
    5.3310   -4.9620   23.0900 C   0  0  0  0  0  0  0  0  0  0  0  0
    6.3690   -5.4040   22.0830 C   0  0  0  0  0  0  0  0  0  0  0  0
    7.4710   -3.3040   22.0750 C   0  0  0  0  0  0  0  0  0  0  0  0
    6.5250   -2.6960   23.0860 C   0  0  0  0  0  0  0  0  0  0  0  0
    6.3990   -4.1650   19.9560 C   0  0  0  0  0  0  0  0  0  0  0  0
    6.9510   -3.0170   19.1460 C   0  0  0  0  0  0  0  0  0  0  0  0
  1  9  1  0
  1 12  1  0
  1 15  1  0
  2  3  1  0
  3  4  1  0
  4  7  2  0
  4 11  1  0
  5 13  1  0
  5 14  1  0
  5 16  1  0
  6 16  2  0
  7  8  1  0
  8  9  2  0
  9 10  1  0
 10 11  2  0
 12 13  1  0
 14 15  1  0
 16 17  1  0
M  END
